
##########                                Name:     oleObject80.pdb
##########                DOCK_Rotatable_Bonds:                  14
##########                         Heavy_Atoms:                  51
##########                    Molecular_Weight:             703.283
##########                DOCK_Rotatable_Bonds:                  14
##########                       Formal_Charge:         0.000299793
##########                     HBond_Acceptors:                  10
##########                        HBond_Donors:                   3
##########                         Heavy_Atoms:                  51
##########                          Grid_Score:          -44.269936
##########                     Grid_vdw_energy:          -44.223503
##########                      Grid_es_energy:           -0.046434
##########           Internal_energy_repulsive:           32.125397

@<TRIPOS>MOLECULE
oleObject80.pdb
 94 99 1 0 0
SMALL
NO_CHARGES


@<TRIPOS>ATOM
      1 C          -8.8350   -0.6842   59.7403 C.ar    1  UNL        -0.0620
      2 C          -9.0580   -1.9561   59.1943 C.ar    1  UNL        -0.0590
      3 C         -10.2326   -2.2320   58.4676 C.ar    1  UNL        -0.0456
      4 C         -11.2026   -1.2135   58.2859 C.ar    1  UNL        -0.0185
      5 C         -10.9617    0.0632   58.8408 C.ar    1  UNL        -0.0565
      6 C          -9.7879    0.3265   59.5618 C.ar    1  UNL        -0.0619
      7 C         -12.4996   -1.4885   57.5039 C.3     1  UNL         0.0931
      8 C         -13.6121   -2.1311   58.3514 C.ar    1  UNL         0.0683
      9 C         -14.3217   -3.2734   57.9017 C.ar    1  UNL        -0.0272
     10 C         -15.3309   -3.8040   58.7270 C.ar    1  UNL        -0.0559
     11 C         -15.5970   -3.1934   59.9609 C.ar    1  UNL        -0.0435
     12 C         -14.8411   -2.0720   60.3320 C.ar    1  UNL         0.0272
     13 N         -13.8741   -1.5573   59.5499 N.ar    1  UNL        -0.2587
     14 C         -14.0263   -3.9410   56.5630 C.3     1  UNL        -0.0379
     15 N         -12.9700   -0.3360   56.6823 N.am    1  UNL        -0.2918
     16 C         -12.0982    0.3079   55.7968 C.2     1  UNL         0.2180
     17 O         -11.0381   -0.2078   55.4816 O.2     1  UNL        -0.2772
     18 C         -12.6688    1.4958   54.9822 C.3     1  UNL         0.0385
     19 C         -12.1981    1.4670   53.5071 C.3     1  UNL        -0.0289
     20 C         -10.7137    1.8627   53.3692 C.3     1  UNL        -0.0010
     21 N         -10.4513    3.2009   53.9410 N.4     1  UNL        -0.3010
     22 C         -10.8588    3.3160   55.3619 C.3     1  UNL        -0.0010
     23 C         -12.3259    2.8771   55.6009 C.3     1  UNL        -0.0289
     24 C          -9.0649    3.6421   53.6705 C.3     1  UNL         0.0222
     25 C          -7.9942    2.6721   54.2112 C.3     1  UNL         0.0661
     26 O          -7.5067    1.8949   53.1029 O.3     1  UNL        -0.3432
     27 C          -6.2802    2.1062   52.5029 C.ar    1  UNL         0.0937
     28 C          -5.6266    3.3541   52.5532 C.ar    1  UNL        -0.0284
     29 C          -4.3807    3.5255   51.9276 C.ar    1  UNL        -0.0381
     30 C          -3.7608    2.4574   51.2566 C.ar    1  UNL         0.0319
     31 C          -4.4254    1.2176   51.1885 C.ar    1  UNL        -0.0194
     32 C          -5.6721    1.0409   51.8110 C.ar    1  UNL         0.0727
     33 CL         -6.4573   -0.5235   51.7010 Cl      1  UNL        -0.0814
     34 N          -2.5329    2.6772   50.6352 N.pl3   1  UNL        -0.3136
     35 C          -2.0410    2.2863   49.3902 C.ar    1  UNL         0.0489
     36 C          -2.9261    2.1490   48.3064 C.ar    1  UNL         0.0488
     37 N          -2.5290    1.7942   47.0681 N.ar    1  UNL        -0.2543
     38 C          -1.2210    1.5663   46.8170 C.ar    1  UNL         0.0703
     39 C          -0.2612    1.7017   47.8536 C.ar    1  UNL        -0.0339
     40 C          -0.6729    2.0684   49.1450 C.ar    1  UNL        -0.0371
     41 C          -0.8539    1.1799   45.4090 C.ar    1  UNL         0.0009
     42 C           0.4489    1.4032   44.8916 C.ar    1  UNL        -0.0402
     43 C           0.8051    1.0463   43.5742 C.ar    1  UNL         0.0375
     44 C          -0.1683    0.4491   42.7466 C.ar    1  UNL        -0.0496
     45 C          -1.4644    0.2213   43.2293 C.ar    1  UNL        -0.0608
     46 C          -1.8037    0.5830   44.5409 C.ar    1  UNL        -0.0528
     47 C           2.2089    1.3140   43.0876 C.2     1  UNL         0.2403
     48 O           2.5076    1.2863   41.9072 O.2     1  UNL        -0.2722
     49 N           3.1678    1.5990   44.0365 N.am    1  UNL        -0.3251
     50 C         -14.4003    0.0308   56.7866 C.3     1  UNL         0.0037
     51 C         -10.4191   -3.6333   57.8930 C.3     1  UNL        -0.0394
     52 H          -7.9250   -0.4827   60.2982 H       1  UNL         0.0623
     53 H          -8.3109   -2.7317   59.3376 H       1  UNL         0.0626
     54 H         -11.6796    0.8669   58.7109 H       1  UNL         0.0627
     55 H          -9.6176    1.3144   59.9804 H       1  UNL         0.0623
     56 H         -12.2237   -2.2664   56.7875 H       1  UNL         0.0626
     57 H         -15.9005   -4.6759   58.4180 H       1  UNL         0.0627
     58 H         -16.3703   -3.5819   60.6170 H       1  UNL         0.0639
     59 H         -15.0142   -1.5701   61.2831 H       1  UNL         0.0840
     60 H         -14.3053   -3.2865   55.7277 H       1  UNL         0.0280
     61 H         -14.5846   -4.8782   56.4466 H       1  UNL         0.0280
     62 H         -12.9607   -4.1827   56.4656 H       1  UNL         0.0280
     63 H         -13.7617    1.4127   54.9975 H       1  UNL         0.0402
     64 H         -12.8056    2.1702   52.9228 H       1  UNL         0.0288
     65 H         -12.3580    0.4779   53.0647 H       1  UNL         0.0288
     66 H         -10.4485    1.8531   52.3041 H       1  UNL         0.0431
     67 H         -10.0912    1.1111   53.8737 H       1  UNL         0.0431
     68 H         -10.7612    4.3530   55.7040 H       1  UNL         0.0431
     69 H         -10.1903    2.7060   55.9820 H       1  UNL         0.0431
     70 H         -12.9851    3.6321   55.1533 H       1  UNL         0.0288
     71 H         -12.5436    2.8734   56.6765 H       1  UNL         0.0288
     72 H          -8.8990    4.6187   54.1439 H       1  UNL         0.0455
     73 H          -8.9181    3.7705   52.5901 H       1  UNL         0.0455
     74 H          -8.4311    2.0107   54.9693 H       1  UNL         0.0586
     75 H          -7.1751    3.2469   54.6618 H       1  UNL         0.0586
     76 H          -6.0725    4.1974   53.0703 H       1  UNL         0.0652
     77 H          -3.8892    4.4934   51.9737 H       1  UNL         0.0644
     78 H          -3.9907    0.3906   50.6360 H       1  UNL         0.0659
     79 H          -1.8763    3.2103   51.1909 H       1  UNL         0.1528
     80 H          -3.9940    2.3201   48.4355 H       1  UNL         0.0861
     81 H           0.7920    1.5177   47.6717 H       1  UNL         0.0646
     82 H           0.0662    2.1968   49.9295 H       1  UNL         0.0644
     83 H           1.1967    1.8792   45.5163 H       1  UNL         0.0638
     84 H           0.0651    0.1588   41.7270 H       1  UNL         0.0631
     85 H          -2.2093   -0.2384   42.5858 H       1  UNL         0.0623
     86 H          -2.8147    0.3870   44.8866 H       1  UNL         0.0630
     87 H           4.1207    1.7845   43.7538 H       1  UNL         0.1458
     88 H           2.9014    1.6201   45.0127 H       1  UNL         0.1458
     89 H         -14.9057   -0.5218   57.5855 H       1  UNL         0.0433
     90 H         -14.9176   -0.1946   55.8468 H       1  UNL         0.0433
     91 H         -14.4886    1.1038   56.9974 H       1  UNL         0.0433
     92 H          -9.5523   -4.2744   58.0964 H       1  UNL         0.0280
     93 H         -10.5491   -3.6026   56.8045 H       1  UNL         0.0280
     94 H         -11.2968   -4.1274   58.3276 H       1  UNL         0.0280
@<TRIPOS>BOND
     1     1     2   ar
     2     1     6   ar
     3     1    52    1
     4     2     3   ar
     5     2    53    1
     6     3     4   ar
     7     3    51    1
     8     4     5   ar
     9     4     7    1
    10     5     6   ar
    11     5    54    1
    12     6    55    1
    13     7     8    1
    14     7    15    1
    15     7    56    1
    16     8     9   ar
    17     8    13   ar
    18     9    10   ar
    19     9    14    1
    20    10    11   ar
    21    10    57    1
    22    11    12   ar
    23    11    58    1
    24    12    13   ar
    25    12    59    1
    26    14    60    1
    27    14    61    1
    28    14    62    1
    29    15    16   am
    30    15    50    1
    31    16    17    2
    32    16    18    1
    33    18    19    1
    34    18    23    1
    35    18    63    1
    36    19    20    1
    37    19    64    1
    38    19    65    1
    39    20    21    1
    40    20    66    1
    41    20    67    1
    42    21    22    1
    43    21    24    1
    44    22    23    1
    45    22    68    1
    46    22    69    1
    47    23    70    1
    48    23    71    1
    49    24    25    1
    50    24    72    1
    51    24    73    1
    52    25    26    1
    53    25    74    1
    54    25    75    1
    55    26    27    1
    56    27    28   ar
    57    27    32   ar
    58    28    29   ar
    59    28    76    1
    60    29    30   ar
    61    29    77    1
    62    30    31   ar
    63    30    34    1
    64    31    32   ar
    65    31    78    1
    66    32    33    1
    67    34    35    1
    68    34    79    1
    69    35    36   ar
    70    35    40   ar
    71    36    37   ar
    72    36    80    1
    73    37    38   ar
    74    38    39   ar
    75    38    41    1
    76    39    40   ar
    77    39    81    1
    78    40    82    1
    79    41    42   ar
    80    41    46   ar
    81    42    43   ar
    82    42    83    1
    83    43    44   ar
    84    43    47    1
    85    44    45   ar
    86    44    84    1
    87    45    46   ar
    88    45    85    1
    89    46    86    1
    90    47    48    2
    91    47    49   am
    92    49    87    1
    93    49    88    1
    94    50    89    1
    95    50    90    1
    96    50    91    1
    97    51    92    1
    98    51    93    1
    99    51    94    1
@<TRIPOS>SUBSTRUCTURE
     1 UNL         1 TEMP              0 ****  ****    0 ROOT


##########                                Name:     oleObject70.pdb
##########                DOCK_Rotatable_Bonds:                   9
##########                         Heavy_Atoms:                  35
##########                    Molecular_Weight:             504.458
##########                DOCK_Rotatable_Bonds:                   9
##########                       Formal_Charge:          0.00010002
##########                     HBond_Acceptors:                   6
##########                        HBond_Donors:                   2
##########                         Heavy_Atoms:                  35
##########                          Grid_Score:          -42.036491
##########                     Grid_vdw_energy:          -41.802044
##########                      Grid_es_energy:           -0.234446
##########           Internal_energy_repulsive:           16.251656

@<TRIPOS>MOLECULE
oleObject70.pdb
 62 65 1 0 0
SMALL
NO_CHARGES


@<TRIPOS>ATOM
      1 C          -8.7911   -1.5527   60.2842 C.ar    1  UNL        -0.0620
      2 C          -9.5875   -2.5665   59.7328 C.ar    1  UNL        -0.0590
      3 C          -9.9753   -2.5218   58.3795 C.ar    1  UNL        -0.0456
      4 C          -9.5480   -1.4452   57.5610 C.ar    1  UNL        -0.0187
      5 C          -8.7590   -0.4248   58.1354 C.ar    1  UNL        -0.0565
      6 C          -8.3806   -0.4782   59.4850 C.ar    1  UNL        -0.0619
      7 C          -9.9516   -1.3627   56.0780 C.3     1  UNL         0.0909
      8 C         -11.3792   -0.8374   55.8472 C.ar    1  UNL         0.0681
      9 C         -11.7078    0.5318   56.0155 C.ar    1  UNL        -0.0272
     10 C         -13.0379    0.9339   55.7898 C.ar    1  UNL        -0.0559
     11 C         -13.9863   -0.0244   55.4046 C.ar    1  UNL        -0.0435
     12 C         -13.5726   -1.3561   55.2543 C.ar    1  UNL         0.0272
     13 N         -12.3036   -1.7503   55.4673 N.ar    1  UNL        -0.2587
     14 C         -10.6758    1.5727   56.4354 C.3     1  UNL        -0.0379
     15 N          -8.9144   -0.7274   55.2355 N.am    1  UNL        -0.2987
     16 C          -8.6910   -0.9534   53.8828 C.2     1  UNL         0.2437
     17 O          -9.3658   -1.7266   53.2248 O.2     1  UNL        -0.2719
     18 C          -7.5619   -0.1727   53.2535 C.ar    1  UNL         0.0371
     19 C          -6.6888   -0.7479   52.3029 C.ar    1  UNL        -0.0494
     20 C          -5.6494    0.0081   51.7361 C.ar    1  UNL        -0.0570
     21 C          -5.4611    1.3500   52.1064 C.ar    1  UNL        -0.0341
     22 C          -6.3258    1.9303   53.0489 C.ar    1  UNL        -0.0570
     23 C          -7.3648    1.1756   53.6172 C.ar    1  UNL        -0.0494
     24 C          -4.3402    2.1668   51.4858 C.3     1  UNL         0.0208
     25 N          -4.1657    1.8419   50.0645 N.4     1  UNL        -0.3086
     26 C          -2.9849    2.4671   49.4542 C.3     1  UNL         0.0223
     27 C          -1.9732    1.4238   48.9993 C.ar    1  UNL        -0.0154
     28 C          -2.1858    0.7395   47.7872 C.ar    1  UNL        -0.0548
     29 C          -1.2663   -0.2242   47.3417 C.ar    1  UNL        -0.0431
     30 C          -0.1247   -0.5091   48.1066 C.ar    1  UNL         0.0421
     31 C           0.0988    0.1696   49.3148 C.ar    1  UNL        -0.0245
     32 C          -0.8205    1.1340   49.7618 C.ar    1  UNL         0.0465
     33 CL         -0.4925    1.9616   51.2735 Cl      1  UNL        -0.0839
     34 CL          1.0229   -1.7093   47.5520 Cl      1  UNL        -0.0843
     35 C         -10.8655   -3.6382   57.8421 C.3     1  UNL        -0.0394
     36 H          -8.5018   -1.5951   61.3303 H       1  UNL         0.0623
     37 H          -9.9100   -3.3888   60.3654 H       1  UNL         0.0626
     38 H          -8.4415    0.4251   57.5407 H       1  UNL         0.0627
     39 H          -7.7740    0.3160   59.9106 H       1  UNL         0.0623
     40 H          -9.9656   -2.3960   55.7187 H       1  UNL         0.0624
     41 H         -13.3337    1.9718   55.9127 H       1  UNL         0.0627
     42 H         -15.0196    0.2576   55.2261 H       1  UNL         0.0639
     43 H         -14.2770   -2.1317   54.9567 H       1  UNL         0.0840
     44 H         -10.3053    1.3754   57.4487 H       1  UNL         0.0280
     45 H         -11.1010    2.5842   56.4356 H       1  UNL         0.0280
     46 H          -9.8179    1.5818   55.7524 H       1  UNL         0.0280
     47 H          -8.3012   -0.0666   55.6920 H       1  UNL         0.1508
     48 H          -6.8021   -1.7813   51.9917 H       1  UNL         0.0631
     49 H          -4.9901   -0.4494   51.0035 H       1  UNL         0.0626
     50 H          -6.1954    2.9688   53.3407 H       1  UNL         0.0626
     51 H          -8.0209    1.6474   54.3436 H       1  UNL         0.0631
     52 H          -3.4072    1.9689   52.0295 H       1  UNL         0.0479
     53 H          -4.5686    3.2348   51.5968 H       1  UNL         0.0479
     54 H          -4.9984    2.1317   49.5520 H       1  UNL         0.1229
     55 H          -2.5100    3.1393   50.1804 H       1  UNL         0.0480
     56 H          -3.2872    3.0796   48.5950 H       1  UNL         0.0480
     57 H          -3.0647    0.9573   47.1866 H       1  UNL         0.0627
     58 H          -1.4386   -0.7467   46.4050 H       1  UNL         0.0639
     59 H           0.9847   -0.0501   49.9037 H       1  UNL         0.0654
     60 H         -11.2175   -4.2984   58.6447 H       1  UNL         0.0280
     61 H         -10.3236   -4.2608   57.1195 H       1  UNL         0.0280
     62 H         -11.7552   -3.2320   57.3448 H       1  UNL         0.0280
@<TRIPOS>BOND
     1     1     2   ar
     2     1     6   ar
     3     1    36    1
     4     2     3   ar
     5     2    37    1
     6     3     4   ar
     7     3    35    1
     8     4     5   ar
     9     4     7    1
    10     5     6   ar
    11     5    38    1
    12     6    39    1
    13     7     8    1
    14     7    15    1
    15     7    40    1
    16     8     9   ar
    17     8    13   ar
    18     9    10   ar
    19     9    14    1
    20    10    11   ar
    21    10    41    1
    22    11    12   ar
    23    11    42    1
    24    12    13   ar
    25    12    43    1
    26    14    44    1
    27    14    45    1
    28    14    46    1
    29    15    16   am
    30    15    47    1
    31    16    17    2
    32    16    18    1
    33    18    19   ar
    34    18    23   ar
    35    19    20   ar
    36    19    48    1
    37    20    21   ar
    38    20    49    1
    39    21    22   ar
    40    21    24    1
    41    22    23   ar
    42    22    50    1
    43    23    51    1
    44    24    25    1
    45    24    52    1
    46    24    53    1
    47    25    26    1
    48    25    54    1
    49    26    27    1
    50    26    55    1
    51    26    56    1
    52    27    28   ar
    53    27    32   ar
    54    28    29   ar
    55    28    57    1
    56    29    30   ar
    57    29    58    1
    58    30    31   ar
    59    30    34    1
    60    31    32   ar
    61    31    59    1
    62    32    33    1
    63    35    60    1
    64    35    61    1
    65    35    62    1
@<TRIPOS>SUBSTRUCTURE
     1 UNL         1 TEMP              0 ****  ****    0 ROOT


##########                                Name:    ZINC001591898574
##########                DOCK_Rotatable_Bonds:                  10
##########                         Heavy_Atoms:                  26
##########                    Molecular_Weight:             383.434
##########                DOCK_Rotatable_Bonds:                  10
##########                       Formal_Charge:         5.96046e-08
##########                     HBond_Acceptors:                  13
##########                        HBond_Donors:                   3
##########                         Heavy_Atoms:                  26
##########                          Grid_Score:          -41.395004
##########                     Grid_vdw_energy:          -37.147953
##########                      Grid_es_energy:           -4.247050
##########           Internal_energy_repulsive:           11.300958

@<TRIPOS>MOLECULE
ZINC001591898574
 47 48 1 0 0
SMALL
USER_CHARGES


@<TRIPOS>ATOM
      1 C1         -2.5152    2.6929   44.8842 C.3     1  ZINC001591898574   -0.1100
      2 C2         -2.3586    2.0920   46.2574 C.ar    1  ZINC001591898574    0.2300
      3 C3         -1.3868    1.1363   46.4958 C.ar    1  ZINC001591898574   -0.2400
      4 C4         -1.2765    0.6063   47.7836 C.ar    1  ZINC001591898574    0.3000
      5 C5         -0.2500   -0.4208   48.0900 C.2     1  ZINC001591898574    0.2100
      6 N6         -0.0237   -0.9831   49.2608 N.2     1  ZINC001591898574   -0.2500
      7 N7          0.9448   -1.8208   49.1152 N.pl3   1  ZINC001591898574   -0.2200
      8 N8          1.3392   -1.8073   47.8899 N.2     1  ZINC001591898574   -0.0400
      9 N9          0.6237   -0.9616   47.2289 N.2     1  ZINC001591898574   -0.2500
     10 N10        -2.1054    1.0365   48.7313 N.ar    1  ZINC001591898574   -0.5500
     11 C11        -3.0216    1.9530   48.4605 C.ar    1  ZINC001591898574    0.5800
     12 N12        -3.8683    2.3788   49.4694 N.pl3   1  ZINC001591898574   -0.7000
     13 C13        -3.5202    2.1316   50.8709 C.3     1  ZINC001591898574    0.1400
     14 C14        -4.8001    1.9617   51.6918 C.3     1  ZINC001591898574   -0.1500
     15 C15        -5.4723    0.6384   51.3204 C.3     1  ZINC001591898574    0.1200
     16 N16        -6.8475    0.6307   51.8250 N.am    1  ZINC001591898574   -0.7300
     17 C17        -7.4771   -0.5400   52.0479 C.2     1  ZINC001591898574    0.4900
     18 O18        -6.9045   -1.5872   51.8320 O.2     1  ZINC001591898574   -0.5300
     19 C19        -8.8924   -0.5479   52.5653 C.3     1  ZINC001591898574    0.1000
     20 N20        -8.8773   -0.6433   54.0272 N.am    1  ZINC001591898574   -0.9800
     21 C21        -7.9050    0.1317   54.8019 C.3     1  ZINC001591898574    0.1000
     22 S22        -9.9595   -1.6272   54.8040 S.o2    1  ZINC001591898574    2.6100
     23 C23       -11.5848   -0.9775   54.3276 C.3     1  ZINC001591898574   -0.6600
     24 O24        -9.7456   -2.9079   54.2267 O.2     1  ZINC001591898574   -0.9500
     25 O25        -9.7151   -1.3958   56.1846 O.2     1  ZINC001591898574   -0.9600
     26 N26        -3.1456    2.4767   47.2497 N.ar    1  ZINC001591898574   -0.5600
     27 H27        -1.8816    3.5758   44.7996 H       1  ZINC001591898574    0.0900
     28 H28        -2.2211    1.9612   44.1317 H       1  ZINC001591898574    0.0900
     29 H29        -3.5560    2.9764   44.7282 H       1  ZINC001591898574    0.0900
     30 H30        -0.7292    0.8076   45.7047 H       1  ZINC001591898574    0.1600
     31 H31         1.3180   -2.3746   49.8186 H       1  ZINC001591898574    0.4800
     32 H32        -4.6920    2.8408   49.2485 H       1  ZINC001591898574    0.4200
     33 H33        -2.9201    1.2244   50.9415 H       1  ZINC001591898574    0.0700
     34 H34        -2.9496    2.9758   51.2578 H       1  ZINC001591898574    0.0700
     35 H35        -4.5532    1.9584   52.7534 H       1  ZINC001591898574    0.0800
     36 H36        -5.4801    2.7867   51.4794 H       1  ZINC001591898574    0.0800
     37 H37        -5.4826    0.5278   50.2360 H       1  ZINC001591898574    0.0700
     38 H38        -4.9176   -0.1882   51.7646 H       1  ZINC001591898574    0.0700
     39 H39        -7.3051    1.4681   51.9988 H       1  ZINC001591898574    0.4000
     40 H40        -9.3937    0.3727   52.2665 H       1  ZINC001591898574    0.1200
     41 H41        -9.4261   -1.4032   52.1510 H       1  ZINC001591898574    0.1300
     42 H42        -8.3311    1.1034   55.0517 H       1  ZINC001591898574    0.0600
     43 H43        -7.6607   -0.4045   55.7188 H       1  ZINC001591898574    0.0700
     44 H44        -6.9997    0.2729   54.2114 H       1  ZINC001591898574    0.0700
     45 H45       -11.6932   -1.0287   53.2442 H       1  ZINC001591898574    0.1300
     46 H46       -12.3665   -1.5728   54.7995 H       1  ZINC001591898574    0.1200
     47 H47       -11.6713    0.0592   54.6528 H       1  ZINC001591898574    0.1300
@<TRIPOS>BOND
     1     1     2    1
     2     1    27    1
     3     1    28    1
     4     1    29    1
     5     2    26   ar
     6     2     3   ar
     7     3     4   ar
     8     3    30    1
     9     4     5    1
    10     4    10   ar
    11     5     9    1
    12     5     6    2
    13     6     7    1
    14     7     8    1
    15     7    31    1
    16     8     9    2
    17    10    11   ar
    18    11    12    1
    19    11    26   ar
    20    12    13    1
    21    12    32    1
    22    13    14    1
    23    13    33    1
    24    13    34    1
    25    14    15    1
    26    14    35    1
    27    14    36    1
    28    15    16    1
    29    15    37    1
    30    15    38    1
    31    16    17   am
    32    16    39    1
    33    17    18    2
    34    17    19    1
    35    19    20    1
    36    19    40    1
    37    19    41    1
    38    20    21    1
    39    20    22   am
    40    21    42    1
    41    21    43    1
    42    21    44    1
    43    22    23    1
    44    22    24    2
    45    22    25    2
    46    23    45    1
    47    23    46    1
    48    23    47    1
@<TRIPOS>SUBSTRUCTURE
     1 ZINC001591898574        1 TEMP              0 ****  ****    0 ROOT


##########                                Name:     oleObject79.pdb
##########                DOCK_Rotatable_Bonds:                  12
##########                         Heavy_Atoms:                  53
##########                    Molecular_Weight:             725.376
##########                DOCK_Rotatable_Bonds:                  12
##########                       Formal_Charge:          0.00050066
##########                     HBond_Acceptors:                   8
##########                        HBond_Donors:                   4
##########                         Heavy_Atoms:                  53
##########                          Grid_Score:          -41.360836
##########                     Grid_vdw_energy:          -41.593536
##########                      Grid_es_energy:            0.232699
##########           Internal_energy_repulsive:           32.778992

@<TRIPOS>MOLECULE
oleObject79.pdb
 102 108 1 0 0
SMALL
NO_CHARGES


@<TRIPOS>ATOM
      1 C          -8.0973    1.1829   59.2467 C.ar    1  UNL        -0.0620
      2 C          -8.3710   -0.1507   59.5805 C.ar    1  UNL        -0.0590
      3 C          -9.6791   -0.5593   59.9062 C.ar    1  UNL        -0.0456
      4 C         -10.7362    0.3891   59.8946 C.ar    1  UNL        -0.0185
      5 C         -10.4401    1.7272   59.5554 C.ar    1  UNL        -0.0565
      6 C          -9.1339    2.1232   59.2347 C.ar    1  UNL        -0.0619
      7 C         -12.1968   -0.0090   60.1888 C.3     1  UNL         0.0931
      8 C         -12.6750    0.2782   61.6244 C.ar    1  UNL         0.0683
      9 C         -13.7863   -0.4043   62.1824 C.ar    1  UNL        -0.0272
     10 C         -14.1714   -0.0943   63.5004 C.ar    1  UNL        -0.0559
     11 C         -13.4480    0.8707   64.2156 C.ar    1  UNL        -0.0435
     12 C         -12.3607    1.4957   63.5880 C.ar    1  UNL         0.0272
     13 N         -11.9860    1.2069   62.3279 N.ar    1  UNL        -0.2587
     14 C         -14.5723   -1.4549   61.4046 C.3     1  UNL        -0.0379
     15 N         -13.1156    0.4748   59.1206 N.am    1  UNL        -0.2918
     16 C         -13.0763   -0.0911   57.8444 C.2     1  UNL         0.2179
     17 O         -12.1066   -0.7429   57.4937 O.2     1  UNL        -0.2772
     18 C         -14.0726    0.4805   56.7999 C.3     1  UNL         0.0361
     19 C         -14.5221   -0.5694   55.7437 C.3     1  UNL        -0.0412
     20 C         -13.4284   -0.9115   54.6944 C.3     1  UNL        -0.0453
     21 C         -12.7841    0.3299   54.0082 C.3     1  UNL        -0.0139
     22 C         -11.5043   -0.1320   53.2576 C.3     1  UNL         0.0171
     23 N         -10.9026    0.9829   52.4983 N.pl3   1  UNL        -0.3290
     24 C         -11.7836    1.5440   51.4553 C.3     1  UNL         0.0115
     25 C         -13.1186    2.0251   52.0714 C.3     1  UNL        -0.0368
     26 C         -13.7709    0.9355   52.9591 C.3     1  UNL        -0.0446
     27 C          -9.5456    1.3029   52.6126 C.ar    1  UNL         0.0476
     28 C          -9.1825    2.5757   53.0946 C.ar    1  UNL        -0.0375
     29 C          -7.8344    2.9513   53.1981 C.ar    1  UNL        -0.0388
     30 C          -6.8163    2.0710   52.8008 C.ar    1  UNL         0.0318
     31 C          -7.1694    0.7913   52.3348 C.ar    1  UNL        -0.0202
     32 C          -8.5174    0.4075   52.2336 C.ar    1  UNL         0.0636
     33 CL         -8.8461   -1.1803   51.5613 Cl      1  UNL        -0.0822
     34 N          -5.4890    2.4786   52.9175 N.pl3   1  UNL        -0.3149
     35 C          -4.3814    2.2667   52.0982 C.ar    1  UNL         0.0302
     36 C          -3.0635    2.4503   52.5557 C.ar    1  UNL        -0.0402
     37 C          -1.9719    2.2010   51.7087 C.ar    1  UNL        -0.0525
     38 C          -2.1594    1.7523   50.3777 C.ar    1  UNL        -0.0182
     39 C          -3.4925    1.5550   49.9397 C.ar    1  UNL        -0.0525
     40 C          -4.5836    1.7998   50.7895 C.ar    1  UNL        -0.0402
     41 C          -0.9932    1.4859   49.4706 C.ar    1  UNL        -0.0177
     42 C          -1.1629    1.3755   48.0669 C.ar    1  UNL        -0.0439
     43 C          -0.0775    1.1223   47.1999 C.ar    1  UNL         0.0111
     44 C           1.2103    0.9749   47.7554 C.ar    1  UNL        -0.0518
     45 C           1.4045    1.0811   49.1401 C.ar    1  UNL        -0.0609
     46 C           0.3165    1.3345   49.9877 C.ar    1  UNL        -0.0543
     47 C          -0.2741    1.0231   45.8188 C.2     1  UNL         0.1014
     48 N           0.6892    0.7927   45.0044 N.3     1  UNL        -0.2892
     49 N          -1.4942    1.1732   45.2856 N.3     1  UNL        -0.2870
     50 C         -12.3752    1.3697   55.0977 C.3     1  UNL        -0.0453
     51 C         -13.5185    1.7315   56.0697 C.3     1  UNL        -0.0412
     52 C         -14.0812    1.5413   59.4651 C.3     1  UNL         0.0037
     53 C          -9.9076   -2.0302   60.2378 C.3     1  UNL        -0.0394
     54 H          -7.0861    1.4868   58.9940 H       1  UNL         0.0623
     55 H          -7.5600   -0.8733   59.5795 H       1  UNL         0.0626
     56 H         -11.2294    2.4712   59.5379 H       1  UNL         0.0627
     57 H          -8.9275    3.1572   58.9744 H       1  UNL         0.0623
     58 H         -12.2321   -1.0981   60.1305 H       1  UNL         0.0626
     59 H         -15.0171   -0.5936   63.9647 H       1  UNL         0.0627
     60 H         -13.7224    1.1282   65.2342 H       1  UNL         0.0639
     61 H         -11.7710    2.2494   64.1083 H       1  UNL         0.0840
     62 H         -15.0261   -1.0247   60.5037 H       1  UNL         0.0280
     63 H         -15.3851   -1.8793   62.0069 H       1  UNL         0.0280
     64 H         -13.9274   -2.2871   61.0967 H       1  UNL         0.0280
     65 H         -14.9694    0.7795   57.3559 H       1  UNL         0.0401
     66 H         -15.4037   -0.1818   55.2175 H       1  UNL         0.0275
     67 H         -14.8491   -1.4880   56.2478 H       1  UNL         0.0275
     68 H         -13.8558   -1.5790   53.9350 H       1  UNL         0.0273
     69 H         -12.6393   -1.4963   55.1814 H       1  UNL         0.0273
     70 H         -11.7581   -0.9464   52.5666 H       1  UNL         0.0474
     71 H         -10.7847   -0.5283   53.9860 H       1  UNL         0.0474
     72 H         -11.9950    0.7670   50.7096 H       1  UNL         0.0468
     73 H         -11.2951    2.3754   50.9325 H       1  UNL         0.0468
     74 H         -13.8104    2.3099   51.2689 H       1  UNL         0.0283
     75 H         -12.9448    2.9301   52.6654 H       1  UNL         0.0283
     76 H         -14.1246    0.1327   52.2990 H       1  UNL         0.0273
     77 H         -14.6647    1.3451   53.4437 H       1  UNL         0.0273
     78 H          -9.9507    3.2801   53.4001 H       1  UNL         0.0644
     79 H          -7.5816    3.9386   53.5744 H       1  UNL         0.0643
     80 H          -6.3975    0.0828   52.0508 H       1  UNL         0.0659
     81 H          -5.2984    3.0464   53.7332 H       1  UNL         0.1528
     82 H          -2.8748    2.7687   53.5751 H       1  UNL         0.0643
     83 H          -0.9708    2.3714   52.0922 H       1  UNL         0.0630
     84 H          -3.6883    1.1877   48.9373 H       1  UNL         0.0630
     85 H          -5.5930    1.6309   50.4251 H       1  UNL         0.0643
     86 H          -2.1559    1.4970   47.6452 H       1  UNL         0.0637
     87 H           2.0697    0.7901   47.1168 H       1  UNL         0.0630
     88 H           2.4007    0.9657   49.5577 H       1  UNL         0.0623
     89 H           0.4927    1.3946   51.0572 H       1  UNL         0.0629
     90 H           0.3620    0.2500   44.2022 H       1  UNL         0.1889
     91 H          -1.5934    1.5316   44.3375 H       1  UNL         0.1258
     92 H          -2.1879    0.4374   45.4067 H       1  UNL         0.1258
     93 H         -11.9898    2.2895   54.6440 H       1  UNL         0.0273
     94 H         -11.5441    0.9573   55.6812 H       1  UNL         0.0273
     95 H         -14.3309    2.2187   55.5175 H       1  UNL         0.0275
     96 H         -13.1624    2.4792   56.7860 H       1  UNL         0.0275
     97 H         -14.0186    2.3688   58.7497 H       1  UNL         0.0433
     98 H         -13.8902    1.9490   60.4643 H       1  UNL         0.0433
     99 H         -15.0978    1.1296   59.4436 H       1  UNL         0.0433
    100 H          -8.9661   -2.5929   60.2641 H       1  UNL         0.0280
    101 H         -10.5506   -2.5065   59.4871 H       1  UNL         0.0280
    102 H         -10.3825   -2.1453   61.2202 H       1  UNL         0.0280
@<TRIPOS>BOND
     1     1     2   ar
     2     1     6   ar
     3     1    54    1
     4     2     3   ar
     5     2    55    1
     6     3     4   ar
     7     3    53    1
     8     4     5   ar
     9     4     7    1
    10     5     6   ar
    11     5    56    1
    12     6    57    1
    13     7     8    1
    14     7    15    1
    15     7    58    1
    16     8     9   ar
    17     8    13   ar
    18     9    10   ar
    19     9    14    1
    20    10    11   ar
    21    10    59    1
    22    11    12   ar
    23    11    60    1
    24    12    13   ar
    25    12    61    1
    26    14    62    1
    27    14    63    1
    28    14    64    1
    29    15    16   am
    30    15    52    1
    31    16    17    2
    32    16    18    1
    33    18    19    1
    34    18    51    1
    35    18    65    1
    36    19    20    1
    37    19    66    1
    38    19    67    1
    39    20    21    1
    40    20    68    1
    41    20    69    1
    42    21    22    1
    43    21    26    1
    44    21    50    1
    45    22    23    1
    46    22    70    1
    47    22    71    1
    48    23    24    1
    49    23    27    1
    50    24    25    1
    51    24    72    1
    52    24    73    1
    53    25    26    1
    54    25    74    1
    55    25    75    1
    56    26    76    1
    57    26    77    1
    58    27    28   ar
    59    27    32   ar
    60    28    29   ar
    61    28    78    1
    62    29    30   ar
    63    29    79    1
    64    30    31   ar
    65    30    34    1
    66    31    32   ar
    67    31    80    1
    68    32    33    1
    69    34    35    1
    70    34    81    1
    71    35    36   ar
    72    35    40   ar
    73    36    37   ar
    74    36    82    1
    75    37    38   ar
    76    37    83    1
    77    38    39   ar
    78    38    41    1
    79    39    40   ar
    80    39    84    1
    81    40    85    1
    82    41    42   ar
    83    41    46   ar
    84    42    43   ar
    85    42    86    1
    86    43    44   ar
    87    43    47    1
    88    44    45   ar
    89    44    87    1
    90    45    46   ar
    91    45    88    1
    92    46    89    1
    93    47    48    1
    94    47    49    1
    95    48    90    1
    96    49    91    1
    97    49    92    1
    98    50    51    1
    99    50    93    1
   100    50    94    1
   101    51    95    1
   102    51    96    1
   103    52    97    1
   104    52    98    1
   105    52    99    1
   106    53   100    1
   107    53   101    1
   108    53   102    1
@<TRIPOS>SUBSTRUCTURE
     1 UNL         1 TEMP              0 ****  ****    0 ROOT


##########                                Name:    ZINC000770814339
##########                DOCK_Rotatable_Bonds:                  13
##########                         Heavy_Atoms:                  28
##########                    Molecular_Weight:             409.423
##########                DOCK_Rotatable_Bonds:                  13
##########                       Formal_Charge:          -0.0100008
##########                     HBond_Acceptors:                  12
##########                        HBond_Donors:                   4
##########                         Heavy_Atoms:                  28
##########                          Grid_Score:          -40.570641
##########                     Grid_vdw_energy:          -38.912834
##########                      Grid_es_energy:           -1.657807
##########           Internal_energy_repulsive:           10.929031

@<TRIPOS>MOLECULE
ZINC000770814339
 47 48 1 0 0
SMALL
USER_CHARGES


@<TRIPOS>ATOM
      1 C1         -8.4153    1.6680   59.1059 C.3     1  ZINC000770814339   -0.1500
      2 C2         -7.8377    0.4105   58.4530 C.3     1  ZINC000770814339    0.0600
      3 O3         -8.7636   -0.0824   57.4490 O.3     1  ZINC000770814339   -0.3500
      4 C4         -8.8056    0.5789   56.2818 C.2     1  ZINC000770814339    0.4700
      5 O5         -9.8115    0.5604   55.6128 O.2     1  ZINC000770814339   -0.4800
      6 C6         -7.5979    1.3443   55.8056 C.3     1  ZINC000770814339    0.0700
      7 O7         -7.7917    1.7425   54.4469 O.3     1  ZINC000770814339   -0.1800
      8 N8         -6.6622    2.3656   53.8627 N.2     1  ZINC000770814339   -0.2800
      9 C9         -6.0362    1.7871   52.8770 C.2     1  ZINC000770814339    0.1800
     10 C10        -4.8530    2.4383   52.2667 C.2     1  ZINC000770814339    0.5900
     11 O11        -4.0900    3.0830   52.9584 O.2     1  ZINC000770814339   -0.5100
     12 N12        -4.6234    2.3154   50.9443 N.am    1  ZINC000770814339   -0.7000
     13 C13        -3.4530    2.9576   50.3413 C.3     1  ZINC000770814339    0.1500
     14 C14        -2.6423    1.9277   49.5974 C.ar    1  ZINC000770814339   -0.0600
     15 C15        -3.0242    1.5315   48.3293 C.ar    1  ZINC000770814339   -0.1200
     16 C16        -2.2806    0.5868   47.6471 C.ar    1  ZINC000770814339   -0.0200
     17 C17        -1.1547    0.0387   48.2327 C.ar    1  ZINC000770814339   -0.6700
     18 S18        -0.2072   -1.1659   47.3632 S.o2    1  ZINC000770814339    2.7000
     19 N19         0.8790   -1.8041   48.4379 N.am    1  ZINC000770814339   -1.2500
     20 O20        -1.1039   -2.2159   47.0276 O.2     1  ZINC000770814339   -0.9600
     21 O21         0.5547   -0.4557   46.3965 O.2     1  ZINC000770814339   -0.9600
     22 C22        -0.7720    0.4358   49.5002 C.ar    1  ZINC000770814339   -0.0200
     23 C23        -1.5135    1.3834   50.1810 C.ar    1  ZINC000770814339   -0.1200
     24 C24        -6.5058    0.4832   52.3680 C.2     1  ZINC000770814339    0.0600
     25 C25        -7.7544    0.2063   51.8540 C.2     1  ZINC000770814339   -0.2000
     26 C26        -7.7742   -1.1397   51.4920 C.2     1  ZINC000770814339    0.0400
     27 N27        -6.6068   -1.6652   51.7657 N.2     1  ZINC000770814339   -0.2600
     28 N28        -5.7835   -0.6731   52.3124 N.pl3   1  ZINC000770814339   -0.4400
     29 H29        -7.7202    2.0380   59.8596 H       1  ZINC000770814339    0.0800
     30 H30        -8.5688    2.4340   58.3459 H       1  ZINC000770814339    0.0700
     31 H31        -9.3682    1.4276   59.5773 H       1  ZINC000770814339    0.0700
     32 H32        -6.8847    0.6509   57.9817 H       1  ZINC000770814339    0.0700
     33 H33        -7.6841   -0.3556   59.2131 H       1  ZINC000770814339    0.0700
     34 H34        -7.4600    2.2289   56.4273 H       1  ZINC000770814339    0.1100
     35 H35        -6.7146    0.7097   55.8757 H       1  ZINC000770814339    0.1100
     36 H36        -5.2333    1.8017   50.3919 H       1  ZINC000770814339    0.4100
     37 H37        -3.7805    3.7322   49.6479 H       1  ZINC000770814339    0.0900
     38 H38        -2.8408    3.4056   51.1240 H       1  ZINC000770814339    0.0900
     39 H39        -3.9038    1.9597   47.8718 H       1  ZINC000770814339    0.1400
     40 H40        -2.5794    0.2768   46.6567 H       1  ZINC000770814339    0.1500
     41 H41         1.4993   -2.4919   48.1498 H       1  ZINC000770814339    0.4200
     42 H42         0.8950   -1.4901   49.3555 H       1  ZINC000770814339    0.4200
     43 H43         0.1078    0.0079   49.9576 H       1  ZINC000770814339    0.1500
     44 H44        -1.2145    1.6937   51.1713 H       1  ZINC000770814339    0.1400
     45 H45        -8.5706    0.9061   51.7507 H       1  ZINC000770814339    0.1700
     46 H46        -8.6136   -1.6626   51.0579 H       1  ZINC000770814339    0.1900
     47 H47        -4.8658   -0.7886   52.6048 H       1  ZINC000770814339    0.4500
@<TRIPOS>BOND
     1     1     2    1
     2     1    29    1
     3     1    30    1
     4     1    31    1
     5     2     3    1
     6     2    32    1
     7     2    33    1
     8     3     4    1
     9     4     5    2
    10     4     6    1
    11     6     7    1
    12     6    34    1
    13     6    35    1
    14     7     8    1
    15     8     9    2
    16     9    10    1
    17     9    24    1
    18    10    11    2
    19    10    12   am
    20    12    13    1
    21    12    36    1
    22    13    14    1
    23    13    37    1
    24    13    38    1
    25    14    23   ar
    26    14    15   ar
    27    15    16   ar
    28    15    39    1
    29    16    17   ar
    30    16    40    1
    31    17    18    1
    32    17    22   ar
    33    18    19   am
    34    18    20    2
    35    18    21    2
    36    19    41    1
    37    19    42    1
    38    22    23   ar
    39    22    43    1
    40    23    44    1
    41    24    28    1
    42    24    25    2
    43    25    26    1
    44    25    45    1
    45    26    27    2
    46    26    46    1
    47    27    28    1
    48    28    47    1
@<TRIPOS>SUBSTRUCTURE
     1 ZINC000770814339        1 TEMP              0 ****  ****    0 ROOT


##########                                Name:    ZINC000062291520
##########                DOCK_Rotatable_Bonds:                  10
##########                         Heavy_Atoms:                  29
##########                    Molecular_Weight:             398.502
##########                DOCK_Rotatable_Bonds:                  10
##########                       Formal_Charge:          -0.0100006
##########                     HBond_Acceptors:                   6
##########                        HBond_Donors:                   1
##########                         Heavy_Atoms:                  29
##########                          Grid_Score:          -39.509712
##########                     Grid_vdw_energy:          -38.710922
##########                      Grid_es_energy:           -0.798788
##########           Internal_energy_repulsive:           12.209150

@<TRIPOS>MOLECULE
ZINC000062291520
 59 61 1 0 0
SMALL
USER_CHARGES


@<TRIPOS>ATOM
      1 C1        -10.1590   -3.1079   55.0185 C.3     1  ZINC000062291520    0.0300
      2 O2         -9.6874   -2.5330   53.7981 O.3     1  ZINC000062291520   -0.3100
      3 C3        -10.1477   -1.2931   53.4815 C.ar    1  ZINC000062291520    0.1000
      4 C4        -10.9202   -0.5868   54.3889 C.ar    1  ZINC000062291520   -0.1700
      5 C5        -11.3922    0.6716   54.0630 C.ar    1  ZINC000062291520   -0.1200
      6 C6        -11.0903    1.2297   52.8351 C.ar    1  ZINC000062291520   -0.1200
      7 C7        -10.3145    0.5325   51.9273 C.ar    1  ZINC000062291520   -0.1700
      8 C8         -9.8385   -0.7285   52.2474 C.ar    1  ZINC000062291520    0.1000
      9 O9         -9.0753   -1.4154   51.3556 O.3     1  ZINC000062291520   -0.3100
     10 C10        -7.9327   -0.7412   50.8246 C.3     1  ZINC000062291520    0.0700
     11 C11        -6.8212   -0.7162   51.8756 C.3     1  ZINC000062291520   -0.1400
     12 C12        -6.3633    0.7036   52.0890 C.2     1  ZINC000062291520    0.5200
     13 O13        -7.0845    1.4939   52.6602 O.2     1  ZINC000062291520   -0.5400
     14 N14        -5.1527    1.0951   51.6448 N.am    1  ZINC000062291520   -0.7200
     15 C15        -4.7084    2.4759   51.8505 C.3     1  ZINC000062291520    0.1600
     16 C16        -3.2282    2.5723   51.5842 C.ar    1  ZINC000062291520   -0.1100
     17 C17        -2.3373    2.6138   52.6400 C.ar    1  ZINC000062291520   -0.1000
     18 C18        -0.9793    2.7017   52.3956 C.ar    1  ZINC000062291520   -0.1200
     19 C19        -0.5127    2.7483   51.0954 C.ar    1  ZINC000062291520   -0.0900
     20 C20        -1.4040    2.7074   50.0393 C.ar    1  ZINC000062291520   -0.0800
     21 C21        -0.8953    2.7586   48.6217 C.3     1  ZINC000062291520    0.0900
     22 N22        -1.1231    1.4608   47.9724 N.3     1  ZINC000062291520   -0.5300
     23 C23        -1.2573    1.6164   46.5166 C.3     1  ZINC000062291520    0.0100
     24 C24        -1.5523    0.2519   45.8881 C.3     1  ZINC000062291520    0.0600
     25 O25        -0.5129   -0.6647   46.2410 O.3     1  ZINC000062291520   -0.3800
     26 C26        -0.3549   -0.8407   47.6515 C.3     1  ZINC000062291520    0.0900
     27 H27        -1.2748   -1.2457   48.0731 H       1  ZINC000062291520    0.0700
     28 C28         0.7993   -1.8086   47.9195 C.3     1  ZINC000062291520   -0.1500
     29 C29        -0.0478    0.5127   48.2980 C.3     1  ZINC000062291520    0.0200
     30 C30        -2.7612    2.6136   50.2835 C.ar    1  ZINC000062291520   -0.0900
     31 H31        -9.8763   -2.4682   55.8545 H       1  ZINC000062291520    0.0500
     32 H32       -11.2446   -3.1992   54.9815 H       1  ZINC000062291520    0.0600
     33 H33        -9.7157   -4.0950   55.1502 H       1  ZINC000062291520    0.1000
     34 H34       -11.1575   -1.0206   55.3489 H       1  ZINC000062291520    0.1400
     35 H35       -11.9978    1.2196   54.7697 H       1  ZINC000062291520    0.1300
     36 H36       -11.4607    2.2126   52.5843 H       1  ZINC000062291520    0.1300
     37 H37       -10.0794    0.9711   50.9687 H       1  ZINC000062291520    0.1400
     38 H38        -8.2047    0.2803   50.5590 H       1  ZINC000062291520    0.0700
     39 H39        -7.5812   -1.2663   49.9365 H       1  ZINC000062291520    0.0700
     40 H40        -5.9820   -1.3208   51.5314 H       1  ZINC000062291520    0.1100
     41 H41        -7.1996   -1.1209   52.8144 H       1  ZINC000062291520    0.1100
     42 H42        -4.5755    0.4628   51.1890 H       1  ZINC000062291520    0.4000
     43 H43        -5.2441    3.1356   51.1679 H       1  ZINC000062291520    0.0800
     44 H44        -4.9126    2.7740   52.8789 H       1  ZINC000062291520    0.0800
     45 H45        -2.7019    2.5769   53.6559 H       1  ZINC000062291520    0.1200
     46 H46        -0.2831    2.7337   53.2206 H       1  ZINC000062291520    0.1300
     47 H47         0.5481    2.8170   50.9046 H       1  ZINC000062291520    0.1200
     48 H48        -1.4254    3.5373   48.0734 H       1  ZINC000062291520    0.0500
     49 H49         0.1720    2.9801   48.6265 H       1  ZINC000062291520    0.0900
     50 H50        -2.0756    2.3025   46.2978 H       1  ZINC000062291520    0.0900
     51 H51        -0.3293    2.0140   46.1060 H       1  ZINC000062291520    0.0400
     52 H52        -2.5074   -0.1207   46.2585 H       1  ZINC000062291520    0.0600
     53 H53        -1.5961    0.3526   44.8036 H       1  ZINC000062291520    0.1000
     54 H54         1.7192   -1.4023   47.4991 H       1  ZINC000062291520    0.0600
     55 H55         0.9192   -1.9423   48.9946 H       1  ZINC000062291520    0.0700
     56 H56         0.5818   -2.7708   47.4557 H       1  ZINC000062291520    0.0700
     57 H57         0.9000    0.8919   47.9157 H       1  ZINC000062291520    0.0400
     58 H58         0.0169    0.3932   49.3794 H       1  ZINC000062291520    0.0900
     59 H59        -3.4570    2.5768   49.4585 H       1  ZINC000062291520    0.1200
@<TRIPOS>BOND
     1     1     2    1
     2     1    31    1
     3     1    32    1
     4     1    33    1
     5     2     3    1
     6     3     8   ar
     7     3     4   ar
     8     4     5   ar
     9     4    34    1
    10     5     6   ar
    11     5    35    1
    12     6     7   ar
    13     6    36    1
    14     7     8   ar
    15     7    37    1
    16     8     9    1
    17     9    10    1
    18    10    11    1
    19    10    38    1
    20    10    39    1
    21    11    12    1
    22    11    40    1
    23    11    41    1
    24    12    13    2
    25    12    14   am
    26    14    15    1
    27    14    42    1
    28    15    16    1
    29    15    43    1
    30    15    44    1
    31    16    30   ar
    32    16    17   ar
    33    17    18   ar
    34    17    45    1
    35    18    19   ar
    36    18    46    1
    37    19    20   ar
    38    19    47    1
    39    20    21    1
    40    20    30   ar
    41    21    22    1
    42    21    48    1
    43    21    49    1
    44    22    29    1
    45    22    23    1
    46    23    24    1
    47    23    50    1
    48    23    51    1
    49    24    25    1
    50    24    52    1
    51    24    53    1
    52    25    26    1
    53    26    27    1
    54    26    28    1
    55    26    29    1
    56    28    54    1
    57    28    55    1
    58    28    56    1
    59    29    57    1
    60    29    58    1
    61    30    59    1
@<TRIPOS>SUBSTRUCTURE
     1 ZINC000062291520        1 TEMP              0 ****  ****    0 ROOT


##########                                Name:    ZINC000508765459
##########                DOCK_Rotatable_Bonds:                  10
##########                         Heavy_Atoms:                  29
##########                    Molecular_Weight:               405.5
##########                DOCK_Rotatable_Bonds:                  10
##########                       Formal_Charge:         -6.4075e-07
##########                     HBond_Acceptors:                  10
##########                        HBond_Donors:                   1
##########                         Heavy_Atoms:                  29
##########                          Grid_Score:          -39.493279
##########                     Grid_vdw_energy:          -38.700222
##########                      Grid_es_energy:           -0.793056
##########           Internal_energy_repulsive:           17.683996

@<TRIPOS>MOLECULE
ZINC000508765459
 60 62 1 0 0
SMALL
USER_CHARGES


@<TRIPOS>ATOM
      1 C1         -9.9871   -2.1732   55.1928 C.3     1  ZINC000508765459    0.0300
      2 O2         -9.9959   -1.0021   54.3739 O.3     1  ZINC000508765459   -0.3900
      3 C3        -10.3740   -1.2443   53.0174 C.3     1  ZINC000508765459    0.0500
      4 C4        -10.1950    0.0375   52.2014 C.3     1  ZINC000508765459    0.1100
      5 N5         -8.8213    0.5239   52.3513 N.am    1  ZINC000508765459   -0.5900
      6 C6         -8.6008    1.6738   53.2177 C.3     1  ZINC000508765459    0.1000
      7 C7         -7.1481    1.7228   53.6951 C.3     1  ZINC000508765459    0.1200
      8 N8         -6.2738    1.5033   52.5304 N.am    1  ZINC000508765459   -0.6400
      9 C9         -5.3931    2.4408   52.1283 C.2     1  ZINC000508765459    0.7100
     10 O10        -5.3074    3.4930   52.7314 O.2     1  ZINC000508765459   -0.5800
     11 N11        -4.6072    2.2118   51.0575 N.am    1  ZINC000508765459   -0.7400
     12 C12        -3.6485    3.2302   50.6214 C.3     1  ZINC000508765459    0.1400
     13 C13        -3.2315    2.9522   49.1757 C.3     1  ZINC000508765459   -0.1400
     14 C14        -2.4392    1.6447   49.1160 C.3     1  ZINC000508765459    0.0600
     15 N15        -1.7430    1.5526   47.8258 N.3     1  ZINC000508765459   -0.5400
     16 C16        -2.6584    1.8372   46.7118 C.3     1  ZINC000508765459    0.0500
     17 C17        -1.8791    1.8096   45.3949 C.3     1  ZINC000508765459    0.0700
     18 N18        -1.2472    0.4931   45.2302 N.3     1  ZINC000508765459   -0.4600
     19 C19        -0.5911    0.4064   44.0145 C.ar    1  ZINC000508765459    0.4900
     20 N20         0.6941    0.7212   43.9493 N.ar    1  ZINC000508765459   -0.5500
     21 C21         1.3508    0.6488   42.8033 C.ar    1  ZINC000508765459    0.1700
     22 C22         0.6778    0.2378   41.6634 C.ar    1  ZINC000508765459   -0.2600
     23 C23        -0.6664   -0.0840   41.7672 C.ar    1  ZINC000508765459    0.1700
     24 N24        -1.2622    0.0053   42.9448 N.ar    1  ZINC000508765459   -0.5300
     25 C25        -0.3318    0.2084   46.3441 C.3     1  ZINC000508765459    0.0700
     26 C26        -1.1111    0.2361   47.6610 C.3     1  ZINC000508765459    0.0600
     27 C27        -6.4007    0.2196   51.8245 C.3     1  ZINC000508765459    0.1000
     28 C28        -7.8595   -0.1206   51.6889 C.2     1  ZINC000508765459    0.5100
     29 O29        -8.1770   -1.0169   50.9361 O.2     1  ZINC000508765459   -0.5400
     30 H30        -9.2797   -2.8958   54.7859 H       1  ZINC000508765459    0.0400
     31 H31        -9.6900   -1.9054   56.2068 H       1  ZINC000508765459    0.0900
     32 H32       -10.9848   -2.6118   55.2104 H       1  ZINC000508765459    0.0400
     33 H33        -9.7460   -2.0313   52.6000 H       1  ZINC000508765459    0.0500
     34 H34       -11.4182   -1.5552   52.9812 H       1  ZINC000508765459    0.0600
     35 H35       -10.3942   -0.1701   51.1501 H       1  ZINC000508765459    0.1100
     36 H36       -10.8904    0.7966   52.5599 H       1  ZINC000508765459    0.0900
     37 H37        -8.8286    2.5866   52.6674 H       1  ZINC000508765459    0.0700
     38 H38        -9.2604    1.6030   54.0826 H       1  ZINC000508765459    0.1000
     39 H39        -6.9380    2.6981   54.1341 H       1  ZINC000508765459    0.1200
     40 H40        -6.9776    0.9412   54.4354 H       1  ZINC000508765459    0.0800
     41 H41        -4.6764    1.3729   50.5756 H       1  ZINC000508765459    0.4000
     42 H42        -4.1114    4.2151   50.6831 H       1  ZINC000508765459    0.0700
     43 H43        -2.7693    3.2008   51.2651 H       1  ZINC000508765459    0.0700
     44 H44        -4.1207    2.8672   48.5511 H       1  ZINC000508765459    0.0700
     45 H45        -2.6096    3.7707   48.8132 H       1  ZINC000508765459    0.0800
     46 H46        -1.7091    1.6249   49.9250 H       1  ZINC000508765459    0.0800
     47 H47        -3.1216    0.8013   49.2216 H       1  ZINC000508765459    0.0400
     48 H48        -3.4445    1.0826   46.6852 H       1  ZINC000508765459    0.0500
     49 H49        -3.1040    2.8223   46.8501 H       1  ZINC000508765459    0.0900
     50 H50        -2.5615    1.9918   44.5647 H       1  ZINC000508765459    0.0900
     51 H51        -1.1106    2.5824   45.4107 H       1  ZINC000508765459    0.0600
     52 H52         2.3983    0.9070   42.7564 H       1  ZINC000508765459    0.1700
     53 H53         1.1897    0.1702   40.7148 H       1  ZINC000508765459    0.1500
     54 H54        -1.2197   -0.4072   40.8978 H       1  ZINC000508765459    0.1700
     55 H55         0.1139   -0.7767   46.2059 H       1  ZINC000508765459    0.1000
     56 H56         0.4542    0.9631   46.3707 H       1  ZINC000508765459    0.0500
     57 H57        -0.4286    0.0539   48.4912 H       1  ZINC000508765459    0.0900
     58 H58        -1.8796   -0.5367   47.6452 H       1  ZINC000508765459    0.0500
     59 H59        -5.9483    0.3003   50.8361 H       1  ZINC000508765459    0.1100
     60 H60        -5.8986   -0.5618   52.3949 H       1  ZINC000508765459    0.1100
@<TRIPOS>BOND
     1     1     2    1
     2     1    30    1
     3     1    31    1
     4     1    32    1
     5     2     3    1
     6     3     4    1
     7     3    33    1
     8     3    34    1
     9     4     5    1
    10     4    35    1
    11     4    36    1
    12     5    28   am
    13     5     6    1
    14     6     7    1
    15     6    37    1
    16     6    38    1
    17     7     8    1
    18     7    39    1
    19     7    40    1
    20     8     9   am
    21     8    27    1
    22     9    10    2
    23     9    11   am
    24    11    12    1
    25    11    41    1
    26    12    13    1
    27    12    42    1
    28    12    43    1
    29    13    14    1
    30    13    44    1
    31    13    45    1
    32    14    15    1
    33    14    46    1
    34    14    47    1
    35    15    26    1
    36    15    16    1
    37    16    17    1
    38    16    48    1
    39    16    49    1
    40    17    18    1
    41    17    50    1
    42    17    51    1
    43    18    19    1
    44    18    25    1
    45    19    24   ar
    46    19    20   ar
    47    20    21   ar
    48    21    22   ar
    49    21    52    1
    50    22    23   ar
    51    22    53    1
    52    23    24   ar
    53    23    54    1
    54    25    26    1
    55    25    55    1
    56    25    56    1
    57    26    57    1
    58    26    58    1
    59    27    28    1
    60    27    59    1
    61    27    60    1
    62    28    29    2
@<TRIPOS>SUBSTRUCTURE
     1 ZINC000508765459        1 TEMP              0 ****  ****    0 ROOT


##########                                Name:    ZINC001109848453
##########                DOCK_Rotatable_Bonds:                   8
##########                         Heavy_Atoms:                  24
##########                    Molecular_Weight:             328.337
##########                DOCK_Rotatable_Bonds:                   8
##########                       Formal_Charge:          0.00999966
##########                     HBond_Acceptors:                  11
##########                        HBond_Donors:                   2
##########                         Heavy_Atoms:                  24
##########                          Grid_Score:          -39.079861
##########                     Grid_vdw_energy:          -37.357525
##########                      Grid_es_energy:           -1.722336
##########           Internal_energy_repulsive:            5.820868

@<TRIPOS>MOLECULE
ZINC001109848453
 40 43 1 0 0
SMALL
USER_CHARGES


@<TRIPOS>ATOM
      1 O1         -6.3249    1.6724   52.2197 O.2     1  ZINC001109848453   -0.5000
      2 C2         -5.6081    0.8383   51.7084 C.2     1  ZINC001109848453    0.5000
      3 C3         -5.9224   -0.6267   51.8704 C.3     1  ZINC001109848453    0.1100
      4 N4         -7.3686   -0.8016   52.0253 N.pl3   1  ZINC001109848453   -0.3700
      5 C5         -8.0742   -0.7065   53.1656 C.2     1  ZINC001109848453    0.2600
      6 N6         -9.3325   -0.9286   52.8842 N.2     1  ZINC001109848453   -0.5400
      7 C7         -9.4686   -1.1680   51.5805 C.2     1  ZINC001109848453    0.2000
      8 N8         -8.2943   -1.0962   51.0109 N.2     1  ZINC001109848453   -0.2900
      9 N9         -4.5337    1.2216   50.9907 N.am    1  ZINC001109848453   -0.7300
     10 C10        -4.2282    2.6457   50.8333 C.3     1  ZINC001109848453    0.1700
     11 H11        -5.1565    3.2167   50.8150 H       1  ZINC001109848453    0.1000
     12 C12        -3.4699    2.8627   49.5222 C.3     1  ZINC001109848453    0.1200
     13 N13        -3.2946    1.5775   48.8411 N.pl3   1  ZINC001109848453   -0.6800
     14 C14        -2.8457    1.5436   47.5312 C.2     1  ZINC001109848453    0.4900
     15 N15        -2.9301    2.6179   46.7707 N.2     1  ZINC001109848453   -0.5300
     16 C16        -2.5015    2.6020   45.5060 C.2     1  ZINC001109848453    0.1400
     17 C17        -1.9675    1.4911   44.9577 C.2     1  ZINC001109848453   -0.0500
     18 N18        -1.8558    0.3488   45.7006 N.pl3   1  ZINC001109848453   -0.1800
     19 N19        -1.4050   -0.8323   45.4662 N.2     1  ZINC001109848453   -0.1000
     20 N20        -1.5321   -1.5538   46.5255 N.2     1  ZINC001109848453   -0.0400
     21 N21        -2.0677   -0.8587   47.4714 N.2     1  ZINC001109848453   -0.2600
     22 C22        -2.2869    0.3580   46.9986 C.2     1  ZINC001109848453    0.1000
     23 C23        -3.3641    3.1146   52.0057 C.3     1  ZINC001109848453   -0.1800
     24 C24        -2.8207    4.5440   51.9554 C.3     1  ZINC001109848453   -0.1700
     25 C25        -3.9467    4.1874   52.9279 C.3     1  ZINC001109848453   -0.1700
     26 H26        -5.5830   -1.1708   50.9889 H       1  ZINC001109848453    0.1300
     27 H27        -5.4132   -1.0121   52.7537 H       1  ZINC001109848453    0.1200
     28 H28        -7.6725   -0.4860   54.1435 H       1  ZINC001109848453    0.2200
     29 H29       -10.3989   -1.3824   51.0757 H       1  ZINC001109848453    0.2200
     30 H30        -3.9627    0.5545   50.5786 H       1  ZINC001109848453    0.4000
     31 H31        -4.0369    3.5387   48.8822 H       1  ZINC001109848453    0.1000
     32 H32        -2.4933    3.2974   49.7350 H       1  ZINC001109848453    0.0900
     33 H33        -3.4929    0.7504   49.3074 H       1  ZINC001109848453    0.4200
     34 H34        -2.5844    3.4982   44.9089 H       1  ZINC001109848453    0.2000
     35 H35        -1.6288    1.5039   43.9323 H       1  ZINC001109848453    0.1900
     36 H36        -2.7316    2.3510   52.4586 H       1  ZINC001109848453    0.1100
     37 H37        -1.8305    4.7211   52.3751 H       1  ZINC001109848453    0.1000
     38 H38        -3.0788    5.1502   51.0871 H       1  ZINC001109848453    0.1000
     39 H39        -4.9457    4.5591   52.6994 H       1  ZINC001109848453    0.1200
     40 H40        -3.6974    4.1299   53.9874 H       1  ZINC001109848453    0.0900
@<TRIPOS>BOND
     1     1     2    2
     2     2     3    1
     3     2     9   am
     4     3     4    1
     5     3    26    1
     6     3    27    1
     7     4     8    1
     8     4     5    1
     9     5     6    2
    10     5    28    1
    11     6     7    1
    12     7     8    2
    13     7    29    1
    14     9    10    1
    15     9    30    1
    16    10    11    1
    17    10    12    1
    18    10    23    1
    19    12    13    1
    20    12    31    1
    21    12    32    1
    22    13    14    1
    23    13    33    1
    24    14    22    1
    25    14    15    2
    26    15    16    1
    27    16    17    2
    28    16    34    1
    29    17    18    1
    30    17    35    1
    31    18    22    1
    32    18    19    1
    33    19    20    2
    34    20    21    1
    35    21    22    2
    36    23    25    1
    37    23    24    1
    38    23    36    1
    39    24    25    1
    40    24    37    1
    41    24    38    1
    42    25    39    1
    43    25    40    1
@<TRIPOS>SUBSTRUCTURE
     1 ZINC001109848453        1 TEMP              0 ****  ****    0 ROOT


##########                                Name:    ZINC000772422035
##########                DOCK_Rotatable_Bonds:                  10
##########                         Heavy_Atoms:                  25
##########                    Molecular_Weight:             348.399
##########                DOCK_Rotatable_Bonds:                  10
##########                       Formal_Charge:          0.00999987
##########                     HBond_Acceptors:                   7
##########                        HBond_Donors:                   0
##########                         Heavy_Atoms:                  25
##########                          Grid_Score:          -38.575535
##########                     Grid_vdw_energy:          -38.409767
##########                      Grid_es_energy:           -0.165767
##########           Internal_energy_repulsive:           17.029997

@<TRIPOS>MOLECULE
ZINC000772422035
 49 50 1 0 0
SMALL
USER_CHARGES


@<TRIPOS>ATOM
      1 C1        -10.2789   -0.9001   52.8226 C.3     1  ZINC000772422035    0.0300
      2 O2         -9.8062   -1.4442   51.5887 O.3     1  ZINC000772422035   -0.3900
      3 C3         -8.5254   -0.9524   51.1893 C.3     1  ZINC000772422035    0.0600
      4 C4         -7.4794   -1.3463   52.2340 C.3     1  ZINC000772422035    0.0700
      5 O5         -6.1934   -0.8810   51.8195 O.3     1  ZINC000772422035   -0.3000
      6 C6         -5.9239    0.4350   52.0097 C.ar    1  ZINC000772422035    0.3300
      7 C7         -4.9917    1.0702   51.1995 C.ar    1  ZINC000772422035   -0.1700
      8 C8         -4.7258    2.4131   51.4037 C.ar    1  ZINC000772422035   -0.0200
      9 C9         -3.7216    3.1391   50.5460 C.3     1  ZINC000772422035    0.1100
     10 O10        -3.6504    2.5046   49.2420 O.3     1  ZINC000772422035   -0.3500
     11 C11        -2.9118    3.1193   48.3047 C.2     1  ZINC000772422035    0.4700
     12 O12        -2.4965    4.2370   48.4999 O.2     1  ZINC000772422035   -0.5000
     13 C13        -2.6007    2.4152   47.0091 C.3     1  ZINC000772422035   -0.1100
     14 C14        -1.1476    1.9362   47.0252 C.3     1  ZINC000772422035    0.0000
     15 H15        -0.7098    2.1370   48.0030 H       1  ZINC000772422035    0.1000
     16 C16        -0.3538    2.6789   45.9486 C.3     1  ZINC000772422035   -0.1500
     17 C17        -1.1039    0.4553   46.7497 C.2     1  ZINC000772422035   -0.2000
     18 C18        -1.5057   -0.1976   45.6330 C.2     1  ZINC000772422035   -0.0200
     19 C19        -2.0984    0.4183   44.3919 C.3     1  ZINC000772422035   -0.0800
     20 O20        -1.2721   -1.4996   45.8500 O.3     1  ZINC000772422035    0.1000
     21 N21        -0.7890   -1.6886   46.9422 N.2     1  ZINC000772422035   -0.3600
     22 C22        -0.6281   -0.5737   47.5946 C.2     1  ZINC000772422035    0.0300
     23 C23        -0.0571   -0.4126   48.9799 C.3     1  ZINC000772422035   -0.0800
     24 C24        -5.4053    3.0759   52.4162 C.ar    1  ZINC000772422035   -0.1900
     25 C25        -6.3193    2.3812   53.1836 C.ar    1  ZINC000772422035    0.1400
     26 N26        -6.5555    1.1023   52.9613 N.ar    1  ZINC000772422035   -0.5300
     27 H27       -11.2561   -1.3231   53.0557 H       1  ZINC000772422035    0.0900
     28 H28        -9.5775   -1.1449   53.6201 H       1  ZINC000772422035    0.0400
     29 H29       -10.3639    0.1830   52.7332 H       1  ZINC000772422035    0.0400
     30 H30        -8.2555   -1.3826   50.2248 H       1  ZINC000772422035    0.0600
     31 H31        -8.5635    0.1337   51.1048 H       1  ZINC000772422035    0.0700
     32 H32        -7.7366   -0.8967   53.1932 H       1  ZINC000772422035    0.0800
     33 H33        -7.4580   -2.4313   52.3355 H       1  ZINC000772422035    0.0800
     34 H34        -4.4808    0.5234   50.4208 H       1  ZINC000772422035    0.1400
     35 H35        -4.0285    4.1784   50.4281 H       1  ZINC000772422035    0.0900
     36 H36        -2.7420    3.1013   51.0225 H       1  ZINC000772422035    0.0900
     37 H37        -3.2644    1.5585   46.8926 H       1  ZINC000772422035    0.1100
     38 H38        -2.7469    3.1040   46.1771 H       1  ZINC000772422035    0.1100
     39 H39        -0.8636    2.5827   44.9900 H       1  ZINC000772422035    0.0600
     40 H40        -0.2779    3.7331   46.2155 H       1  ZINC000772422035    0.0800
     41 H41         0.6455    2.2503   45.8734 H       1  ZINC000772422035    0.0600
     42 H42        -1.2964    0.7534   43.7342 H       1  ZINC000772422035    0.0900
     43 H43        -2.7074   -0.3227   43.8740 H       1  ZINC000772422035    0.0900
     44 H44        -2.7200    1.2694   44.6699 H       1  ZINC000772422035    0.0900
     45 H45         1.0091   -0.1975   48.9106 H       1  ZINC000772422035    0.0800
     46 H46        -0.5614    0.4096   49.4875 H       1  ZINC000772422035    0.0800
     47 H47        -0.2061   -1.3336   49.5437 H       1  ZINC000772422035    0.0800
     48 H48        -5.2210    4.1237   52.6022 H       1  ZINC000772422035    0.1400
     49 H49        -6.8508    2.8923   53.9727 H       1  ZINC000772422035    0.1700
@<TRIPOS>BOND
     1     1     2    1
     2     1    27    1
     3     1    28    1
     4     1    29    1
     5     2     3    1
     6     3     4    1
     7     3    30    1
     8     3    31    1
     9     4     5    1
    10     4    32    1
    11     4    33    1
    12     5     6    1
    13     6    26   ar
    14     6     7   ar
    15     7     8   ar
    16     7    34    1
    17     8     9    1
    18     8    24   ar
    19     9    10    1
    20     9    35    1
    21     9    36    1
    22    10    11    1
    23    11    12    2
    24    11    13    1
    25    13    14    1
    26    13    37    1
    27    13    38    1
    28    14    15    1
    29    14    16    1
    30    14    17    1
    31    16    39    1
    32    16    40    1
    33    16    41    1
    34    17    22    1
    35    17    18    2
    36    18    19    1
    37    18    20    1
    38    19    42    1
    39    19    43    1
    40    19    44    1
    41    20    21    1
    42    21    22    2
    43    22    23    1
    44    23    45    1
    45    23    46    1
    46    23    47    1
    47    24    25   ar
    48    24    48    1
    49    25    26   ar
    50    25    49    1
@<TRIPOS>SUBSTRUCTURE
     1 ZINC000772422035        1 TEMP              0 ****  ****    0 ROOT


##########                                Name:    ZINC000506566356
##########                DOCK_Rotatable_Bonds:                  10
##########                         Heavy_Atoms:                  28
##########                    Molecular_Weight:               415.9
##########                DOCK_Rotatable_Bonds:                  10
##########                       Formal_Charge:           0.0199998
##########                     HBond_Acceptors:                   8
##########                        HBond_Donors:                   2
##########                         Heavy_Atoms:                  28
##########                          Grid_Score:          -38.545101
##########                     Grid_vdw_energy:          -37.118046
##########                      Grid_es_energy:           -1.427057
##########           Internal_energy_repulsive:           11.871854

@<TRIPOS>MOLECULE
ZINC000506566356
 46 48 1 0 0
SMALL
USER_CHARGES


@<TRIPOS>ATOM
      1 O1         -3.0225    2.5632   51.3793 O.2     1  ZINC000506566356   -0.5100
      2 C2         -3.5698    2.0633   50.4183 C.2     1  ZINC000506566356    0.5100
      3 N3         -4.7846    1.4957   50.5543 N.am    1  ZINC000506566356   -0.7000
      4 C4         -5.4418    1.4767   51.8634 C.3     1  ZINC000506566356    0.1200
      5 C5         -6.1306    0.1260   52.0689 C.3     1  ZINC000506566356   -0.0900
      6 C6         -7.1609    0.2485   53.1618 C.ar    1  ZINC000506566356   -0.0700
      7 C7         -6.9860    1.1713   54.1759 C.ar    1  ZINC000506566356   -0.1100
      8 C8         -7.9311    1.2847   55.1787 C.ar    1  ZINC000506566356   -0.1000
      9 C9         -9.0509    0.4750   55.1680 C.ar    1  ZINC000506566356   -0.1100
     10 C10        -9.2264   -0.4491   54.1531 C.ar    1  ZINC000506566356   -0.0300
     11 Cl11      -10.6332   -1.4662   54.1386 Cl      1  ZINC000506566356   -0.0700
     12 C12        -8.2835   -0.5580   53.1469 C.ar    1  ZINC000506566356   -0.1000
     13 C13        -2.8999    2.0826   49.0837 C.2     1  ZINC000506566356    0.5100
     14 O14        -1.9831    2.8506   48.8760 O.2     1  ZINC000506566356   -0.5000
     15 N15        -3.3132    1.2474   48.1101 N.am    1  ZINC000506566356   -0.6300
     16 C16        -2.6857    1.2655   46.8601 C.ar    1  ZINC000506566356    0.1100
     17 C17        -2.6298    2.4419   46.1265 C.ar    1  ZINC000506566356   -0.0800
     18 C18        -2.0093    2.4570   44.8917 C.ar    1  ZINC000506566356   -0.1400
     19 C19        -1.4433    1.3022   44.3843 C.ar    1  ZINC000506566356   -0.0900
     20 C20        -1.4953    0.1256   45.1089 C.ar    1  ZINC000506566356   -0.1900
     21 C21        -2.1097    0.1028   46.3501 C.ar    1  ZINC000506566356    0.1200
     22 O22        -2.1617   -1.0532   47.0638 O.3     1  ZINC000506566356   -0.3100
     23 C23        -0.9208   -1.7145   47.3188 C.3     1  ZINC000506566356    0.1400
     24 C24        -0.0296   -0.8134   48.1341 C.2     1  ZINC000506566356    0.0500
     25 C25         1.1086   -0.2997   47.6583 C.2     1  ZINC000506566356   -0.2300
     26 S26         1.8309    0.6861   48.9276 S.3     1  ZINC000506566356    0.1400
     27 C27         0.5304    0.3095   49.9718 C.2     1  ZINC000506566356    0.0200
     28 N28        -0.3117   -0.4630   49.3728 N.2     1  ZINC000506566356   -0.4700
     29 H29        -5.2238    1.0996   49.7854 H       1  ZINC000506566356    0.4200
     30 H30        -4.6980    1.6279   52.6457 H       1  ZINC000506566356    0.0800
     31 H31        -6.1841    2.2736   51.9089 H       1  ZINC000506566356    0.0800
     32 H32        -6.6180   -0.1779   51.1424 H       1  ZINC000506566356    0.0900
     33 H33        -5.3886   -0.6209   52.3510 H       1  ZINC000506566356    0.0900
     34 H34        -6.1106    1.8039   54.1850 H       1  ZINC000506566356    0.1300
     35 H35        -7.7939    2.0060   55.9707 H       1  ZINC000506566356    0.1300
     36 H36        -9.7886    0.5631   55.9518 H       1  ZINC000506566356    0.1300
     37 H37        -8.4200   -1.2790   52.3545 H       1  ZINC000506566356    0.1300
     38 H38        -4.0458    0.6336   48.2761 H       1  ZINC000506566356    0.4300
     39 H39        -3.0713    3.3455   46.5203 H       1  ZINC000506566356    0.1500
     40 H40        -1.9667    3.3732   44.3215 H       1  ZINC000506566356    0.1300
     41 H41        -0.9594    1.3189   43.4188 H       1  ZINC000506566356    0.1300
     42 H42        -1.0528   -0.7748   44.7090 H       1  ZINC000506566356    0.1400
     43 H43        -1.1070   -2.6365   47.8697 H       1  ZINC000506566356    0.0900
     44 H44        -0.4328   -1.9487   46.3727 H       1  ZINC000506566356    0.0900
     45 H45         1.5142   -0.4604   46.6704 H       1  ZINC000506566356    0.1800
     46 H46         0.4266    0.6699   50.9846 H       1  ZINC000506566356    0.2100
@<TRIPOS>BOND
     1     1     2    2
     2     2     3   am
     3     2    13    1
     4     3     4    1
     5     3    29    1
     6     4     5    1
     7     4    30    1
     8     4    31    1
     9     5     6    1
    10     5    32    1
    11     5    33    1
    12     6    12   ar
    13     6     7   ar
    14     7     8   ar
    15     7    34    1
    16     8     9   ar
    17     8    35    1
    18     9    10   ar
    19     9    36    1
    20    10    11    1
    21    10    12   ar
    22    12    37    1
    23    13    14    2
    24    13    15   am
    25    15    16    1
    26    15    38    1
    27    16    21   ar
    28    16    17   ar
    29    17    18   ar
    30    17    39    1
    31    18    19   ar
    32    18    40    1
    33    19    20   ar
    34    19    41    1
    35    20    21   ar
    36    20    42    1
    37    21    22    1
    38    22    23    1
    39    23    24    1
    40    23    43    1
    41    23    44    1
    42    24    28    1
    43    24    25    2
    44    25    26    1
    45    25    45    1
    46    26    27    1
    47    27    28    2
    48    27    46    1
@<TRIPOS>SUBSTRUCTURE
     1 ZINC000506566356        1 TEMP              0 ****  ****    0 ROOT


##########                                Name:    ZINC001596273020
##########                DOCK_Rotatable_Bonds:                  11
##########                         Heavy_Atoms:                  25
##########                    Molecular_Weight:             355.478
##########                DOCK_Rotatable_Bonds:                  11
##########                       Formal_Charge:          -0.0499996
##########                     HBond_Acceptors:                   7
##########                        HBond_Donors:                   2
##########                         Heavy_Atoms:                  25
##########                          Grid_Score:          -38.504417
##########                     Grid_vdw_energy:          -32.709091
##########                      Grid_es_energy:           -5.795325
##########           Internal_energy_repulsive:           26.554457

@<TRIPOS>MOLECULE
ZINC001596273020
 58 59 1 0 0
SMALL
USER_CHARGES


@<TRIPOS>ATOM
      1 C1          0.7298    2.0578   58.7185 C.3     1  ZINC001596273020   -0.1900
      2 C2         -0.1287    1.6742   57.5115 C.3     1  ZINC001596273020   -0.0200
      3 N3         -0.9133    2.8383   57.0787 N.4     1  ZINC001596273020   -0.3900
      4 H4         -1.4995    3.1500   57.8385 H       1  ZINC001596273020    0.4300
      5 C5         -0.0039    3.9228   56.6852 C.3     1  ZINC001596273020   -0.0100
      6 C6          0.8850    3.4502   55.5332 C.3     1  ZINC001596273020   -0.1900
      7 C7         -1.7537    2.4641   55.9335 C.3     1  ZINC001596273020   -0.0100
      8 C8         -2.6539    3.6419   55.5550 C.3     1  ZINC001596273020    0.0300
      9 O9         -3.4496    3.2882   54.4219 O.3     1  ZINC001596273020   -0.3900
     10 C10        -2.7202    3.2322   53.1943 C.3     1  ZINC001596273020    0.0500
     11 C11        -3.6735    2.8815   52.0502 C.3     1  ZINC001596273020    0.1400
     12 N12        -2.9448    2.9142   50.7798 N.am    1  ZINC001596273020   -0.7500
     13 C13        -3.3330    2.1236   49.7596 C.2     1  ZINC001596273020    0.7200
     14 O14        -4.2872    1.3821   49.8942 O.2     1  ZINC001596273020   -0.6000
     15 N15        -2.6636    2.1549   48.5903 N.am    1  ZINC001596273020   -0.6300
     16 C16        -1.4807    2.9803   48.2419 C.3     1  ZINC001596273020    0.1100
     17 C17        -0.5765    2.0016   47.4384 C.3     1  ZINC001596273020   -0.0800
     18 H18        -0.0224    2.5526   46.6784 H       1  ZINC001596273020    0.1200
     19 C19         0.3910    1.3670   48.4174 C.3     1  ZINC001596273020   -0.1000
     20 C20         0.8134   -0.0364   48.0061 C.3     1  ZINC001596273020   -0.1200
     21 C21        -0.4498   -0.9010   47.8989 C.3     1  ZINC001596273020   -0.1200
     22 C22        -1.2534   -0.3973   46.7043 C.3     1  ZINC001596273020   -0.0800
     23 C23        -1.5584    1.0620   46.7738 C.3     1  ZINC001596273020   -0.1400
     24 C24        -1.6505    1.5294   45.3442 C.2     1  ZINC001596273020    0.5000
     25 O25        -1.8081    0.7192   44.4469 O.co2   1  ZINC001596273020   -0.6900
     26 O26        -1.5672    2.7179   45.0847 O.co2   1  ZINC001596273020   -0.6900
     27 C27        -2.9393    1.3675   47.3640 C.3     1  ZINC001596273020    0.1600
     28 H28         1.4790    2.7885   58.4139 H       1  ZINC001596273020    0.0800
     29 H29         0.0956    2.4890   59.4930 H       1  ZINC001596273020    0.0800
     30 H30         1.2263    1.1692   59.1082 H       1  ZINC001596273020    0.1000
     31 H31         0.5165    1.3473   56.6959 H       1  ZINC001596273020    0.1300
     32 H32        -0.8032    0.8639   57.7882 H       1  ZINC001596273020    0.1300
     33 H33        -0.5860    4.7866   56.3644 H       1  ZINC001596273020    0.1300
     34 H34         0.6197    4.2004   57.5351 H       1  ZINC001596273020    0.1300
     35 H35         1.5462    2.6585   55.8855 H       1  ZINC001596273020    0.0800
     36 H36         0.2605    3.0693   54.7251 H       1  ZINC001596273020    0.0800
     37 H37         1.4816    4.2863   55.1681 H       1  ZINC001596273020    0.1000
     38 H38        -1.1189    2.2049   55.0862 H       1  ZINC001596273020    0.1400
     39 H39        -2.3710    1.6063   56.2008 H       1  ZINC001596273020    0.1400
     40 H40        -3.3052    3.8859   56.3943 H       1  ZINC001596273020    0.1000
     41 H41        -2.0372    4.5066   55.3103 H       1  ZINC001596273020    0.0700
     42 H42        -2.2607    4.2013   53.0002 H       1  ZINC001596273020    0.0700
     43 H43        -1.9443    2.4701   53.2672 H       1  ZINC001596273020    0.0700
     44 H44        -4.0809    1.8832   52.2098 H       1  ZINC001596273020    0.0900
     45 H45        -4.4877    3.6056   52.0209 H       1  ZINC001596273020    0.0700
     46 H46        -2.1829    3.5049   50.6727 H       1  ZINC001596273020    0.3900
     47 H47        -1.7735    3.8281   47.6225 H       1  ZINC001596273020    0.0700
     48 H48        -0.9714    3.3205   49.1435 H       1  ZINC001596273020    0.0600
     49 H49         1.2795    1.9943   48.4899 H       1  ZINC001596273020    0.0500
     50 H50        -0.0828    1.3182   49.3978 H       1  ZINC001596273020    0.0400
     51 H51         1.3185   -0.0010   47.0408 H       1  ZINC001596273020    0.0700
     52 H52         1.4831   -0.4545   48.7576 H       1  ZINC001596273020    0.0500
     53 H53        -0.1722   -1.9437   47.7447 H       1  ZINC001596273020    0.0600
     54 H54        -1.0415   -0.8056   48.8093 H       1  ZINC001596273020    0.0500
     55 H55        -0.6879   -0.5950   45.7937 H       1  ZINC001596273020    0.0600
     56 H56        -2.1924   -0.9490   46.6567 H       1  ZINC001596273020    0.0600
     57 H57        -3.4599    0.4423   47.6111 H       1  ZINC001596273020    0.0700
     58 H58        -3.5285    1.9608   46.6647 H       1  ZINC001596273020    0.0700
@<TRIPOS>BOND
     1     1     2    1
     2     1    28    1
     3     1    29    1
     4     1    30    1
     5     2     3    1
     6     2    31    1
     7     2    32    1
     8     3     4    1
     9     3     5    1
    10     3     7    1
    11     5     6    1
    12     5    33    1
    13     5    34    1
    14     6    35    1
    15     6    36    1
    16     6    37    1
    17     7     8    1
    18     7    38    1
    19     7    39    1
    20     8     9    1
    21     8    40    1
    22     8    41    1
    23     9    10    1
    24    10    11    1
    25    10    42    1
    26    10    43    1
    27    11    12    1
    28    11    44    1
    29    11    45    1
    30    12    13   am
    31    12    46    1
    32    13    14    2
    33    13    15   am
    34    15    27    1
    35    15    16    1
    36    16    17    1
    37    16    47    1
    38    16    48    1
    39    17    18    1
    40    17    23    1
    41    17    19    1
    42    19    20    1
    43    19    49    1
    44    19    50    1
    45    20    21    1
    46    20    51    1
    47    20    52    1
    48    21    22    1
    49    21    53    1
    50    21    54    1
    51    22    23    1
    52    22    55    1
    53    22    56    1
    54    23    24    1
    55    23    27    1
    56    24    25   ar
    57    24    26   ar
    58    27    57    1
    59    27    58    1
@<TRIPOS>SUBSTRUCTURE
     1 ZINC001596273020        1 TEMP              0 ****  ****    0 ROOT


##########                                Name:    ZINC000744839011
##########                DOCK_Rotatable_Bonds:                  10
##########                         Heavy_Atoms:                  24
##########                    Molecular_Weight:              378.83
##########                DOCK_Rotatable_Bonds:                  10
##########                       Formal_Charge:           0.0300002
##########                     HBond_Acceptors:                   9
##########                        HBond_Donors:                   0
##########                         Heavy_Atoms:                  24
##########                          Grid_Score:          -38.473362
##########                     Grid_vdw_energy:          -37.763969
##########                      Grid_es_energy:           -0.709393
##########           Internal_energy_repulsive:            8.502128

@<TRIPOS>MOLECULE
ZINC000744839011
 43 43 1 0 0
SMALL
USER_CHARGES


@<TRIPOS>ATOM
      1 C1          1.5324    0.6899   43.0081 C.3     1  ZINC000744839011    0.0400
      2 O2          0.3098    1.3905   43.3587 O.3     1  ZINC000744839011   -0.3600
      3 C3         -0.7445    0.6354   43.7247 C.2     1  ZINC000744839011    0.5100
      4 O4         -1.2865   -0.0862   42.9111 O.2     1  ZINC000744839011   -0.5000
      5 C5         -1.2406    0.6850   45.1126 C.ar    1  ZINC000744839011   -0.1600
      6 C6         -2.4014    1.4013   45.4166 C.ar    1  ZINC000744839011   -0.0100
      7 C7         -2.8620    1.4450   46.7138 C.ar    1  ZINC000744839011   -0.2100
      8 C8         -2.1745    0.7780   47.7204 C.ar    1  ZINC000744839011    0.1800
      9 O9         -2.6319    0.8238   48.9974 O.3     1  ZINC000744839011   -0.2900
     10 C10        -2.4901    2.0638   49.6932 C.3     1  ZINC000744839011    0.0500
     11 C11        -3.7884    2.3822   50.4375 C.3     1  ZINC000744839011    0.0600
     12 O12        -4.5915    1.1775   50.5473 O.3     1  ZINC000744839011   -0.3400
     13 C13        -5.3777    1.0657   51.6294 C.2     1  ZINC000744839011    0.5000
     14 O14        -5.6103    2.0365   52.3100 O.2     1  ZINC000744839011   -0.4900
     15 C15        -5.9704   -0.2706   51.9953 C.3     1  ZINC000744839011   -0.6400
     16 S16        -7.6358   -0.4072   51.2893 S.o2    1  ZINC000744839011    2.4400
     17 O17        -7.6075    0.0979   49.9614 O.2     1  ZINC000744839011   -0.9100
     18 O18        -8.1191   -1.7233   51.5208 O.2     1  ZINC000744839011   -0.9100
     19 C19        -8.5780    0.7451   52.3261 C.3     1  ZINC000744839011   -0.5700
     20 C20       -10.0121    0.8465   51.8023 C.3     1  ZINC000744839011   -0.1500
     21 C21        -8.5967    0.2351   53.7684 C.3     1  ZINC000744839011   -0.1500
     22 C22        -1.0187    0.0631   47.4226 C.ar    1  ZINC000744839011   -0.0800
     23 Cl23       -0.1643   -0.7686   48.6845 Cl      1  ZINC000744839011   -0.0400
     24 C24        -0.5541    0.0105   46.1269 C.ar    1  ZINC000744839011   -0.0100
     25 H25         1.8736    0.1048   43.8620 H       1  ZINC000744839011    0.0700
     26 H26         1.3414    0.0255   42.1653 H       1  ZINC000744839011    0.0700
     27 H27         2.2998    1.4136   42.7335 H       1  ZINC000744839011    0.1100
     28 H28        -2.9365    1.9205   44.6352 H       1  ZINC000744839011    0.1500
     29 H29        -3.7589    1.9988   46.9491 H       1  ZINC000744839011    0.1500
     30 H30        -1.6708    1.9876   50.4082 H       1  ZINC000744839011    0.0900
     31 H31        -2.2764    2.8589   48.9790 H       1  ZINC000744839011    0.1000
     32 H32        -3.5536    2.7545   51.4347 H       1  ZINC000744839011    0.1100
     33 H33        -4.3453    3.1413   49.8882 H       1  ZINC000744839011    0.0900
     34 H34        -5.3414   -1.0678   51.5993 H       1  ZINC000744839011    0.1700
     35 H35        -6.0275   -0.3579   53.0803 H       1  ZINC000744839011    0.1700
     36 H36        -8.1094    1.7288   52.2945 H       1  ZINC000744839011    0.1400
     37 H37       -10.5783    1.5388   52.4252 H       1  ZINC000744839011    0.0900
     38 H38        -9.9988    1.2098   50.7748 H       1  ZINC000744839011    0.0700
     39 H39       -10.4808   -0.1372   51.8340 H       1  ZINC000744839011    0.0800
     40 H40        -7.5751    0.1630   54.1415 H       1  ZINC000744839011    0.0800
     41 H41        -9.1630    0.9275   54.3913 H       1  ZINC000744839011    0.0900
     42 H42        -9.0653   -0.7484   53.8000 H       1  ZINC000744839011    0.0800
     43 H43         0.3432   -0.5445   45.8961 H       1  ZINC000744839011    0.1600
@<TRIPOS>BOND
     1     1     2    1
     2     1    25    1
     3     1    26    1
     4     1    27    1
     5     2     3    1
     6     3     4    2
     7     3     5    1
     8     5    24   ar
     9     5     6   ar
    10     6     7   ar
    11     6    28    1
    12     7     8   ar
    13     7    29    1
    14     8     9    1
    15     8    22   ar
    16     9    10    1
    17    10    11    1
    18    10    30    1
    19    10    31    1
    20    11    12    1
    21    11    32    1
    22    11    33    1
    23    12    13    1
    24    13    14    2
    25    13    15    1
    26    15    16    1
    27    15    34    1
    28    15    35    1
    29    16    17    2
    30    16    18    2
    31    16    19    1
    32    19    20    1
    33    19    21    1
    34    19    36    1
    35    20    37    1
    36    20    38    1
    37    20    39    1
    38    21    40    1
    39    21    41    1
    40    21    42    1
    41    22    23    1
    42    22    24   ar
    43    24    43    1
@<TRIPOS>SUBSTRUCTURE
     1 ZINC000744839011        1 TEMP              0 ****  ****    0 ROOT


##########                                Name:    ZINC000546142192
##########                DOCK_Rotatable_Bonds:                  12
##########                         Heavy_Atoms:                  31
##########                    Molecular_Weight:             420.511
##########                DOCK_Rotatable_Bonds:                  12
##########                       Formal_Charge:          -0.0599997
##########                     HBond_Acceptors:                   7
##########                        HBond_Donors:                   2
##########                         Heavy_Atoms:                  31
##########                          Grid_Score:          -38.437183
##########                     Grid_vdw_energy:          -38.436497
##########                      Grid_es_energy:           -0.000686
##########           Internal_energy_repulsive:           14.962836

@<TRIPOS>MOLECULE
ZINC000546142192
 59 61 1 0 0
SMALL
USER_CHARGES


@<TRIPOS>ATOM
      1 C1        -10.3704   -4.2873   58.2884 C.3     1  ZINC000546142192    0.0300
      2 O2        -10.3657   -3.5313   57.0487 O.3     1  ZINC000546142192   -0.3600
      3 C3        -10.9086   -2.3041   57.0811 C.2     1  ZINC000546142192    0.4600
      4 O4        -10.8691   -1.6528   58.0981 O.2     1  ZINC000546142192   -0.5100
      5 C5        -11.5672   -1.7387   55.8493 C.3     1  ZINC000546142192   -0.0800
      6 H6        -11.2078   -2.2707   54.9685 H       1  ZINC000546142192    0.1100
      7 C7        -13.0842   -1.9034   55.9609 C.3     1  ZINC000546142192   -0.1500
      8 C8        -11.2233   -0.2531   55.7235 C.3     1  ZINC000546142192   -0.0600
      9 C9         -9.9715   -0.0954   54.8992 C.ar    1  ZINC000546142192   -0.1000
     10 C10        -8.7845    0.2661   55.5096 C.ar    1  ZINC000546142192   -0.0900
     11 C11        -7.6355    0.4110   54.7571 C.ar    1  ZINC000546142192   -0.1200
     12 C12        -7.6731    0.1932   53.3862 C.ar    1  ZINC000546142192    0.1600
     13 N13        -6.5105    0.3387   52.6209 N.am    1  ZINC000546142192   -0.6900
     14 C14        -5.9684    1.5600   52.4444 C.2     1  ZINC000546142192    0.7100
     15 O15        -6.4894    2.5352   52.9501 O.2     1  ZINC000546142192   -0.5700
     16 N16        -4.8487    1.7002   51.7074 N.am    1  ZINC000546142192   -0.7400
     17 C17        -4.2604    3.0279   51.5143 C.3     1  ZINC000546142192    0.2300
     18 C18        -2.7633    2.9404   51.6631 C.2     1  ZINC000546142192    0.1800
     19 N19        -2.1060    3.0037   52.7886 N.2     1  ZINC000546142192   -0.4700
     20 C20        -0.7927    2.8902   52.5409 C.2     1  ZINC000546142192   -0.0300
     21 C21        -0.6300    2.7514   51.2113 C.2     1  ZINC000546142192   -0.0400
     22 N22        -1.8802    2.7778   50.6545 N.pl3   1  ZINC000546142192   -0.4500
     23 C23        -2.2000    2.6603   49.2296 C.3     1  ZINC000546142192    0.1100
     24 C24        -2.4200    1.1881   48.8761 C.3     1  ZINC000546142192   -0.0900
     25 C25        -2.3518    1.0149   47.3805 C.ar    1  ZINC000546142192   -0.0900
     26 C26        -1.9545   -0.1947   46.8422 C.ar    1  ZINC000546142192   -0.1100
     27 C27        -1.8921   -0.3534   45.4704 C.ar    1  ZINC000546142192   -0.1200
     28 C28        -2.2272    0.6973   44.6370 C.ar    1  ZINC000546142192   -0.1200
     29 C29        -2.6253    1.9066   45.1754 C.ar    1  ZINC000546142192   -0.1200
     30 C30        -2.6919    2.0641   46.5472 C.ar    1  ZINC000546142192   -0.1100
     31 C31        -8.8666   -0.1698   52.7762 C.ar    1  ZINC000546142192   -0.1500
     32 C32       -10.0110   -0.3181   53.5351 C.ar    1  ZINC000546142192   -0.0900
     33 H33       -11.3979   -4.4303   58.6227 H       1  ZINC000546142192    0.0600
     34 H34        -9.9034   -5.2582   58.1236 H       1  ZINC000546142192    0.1000
     35 H35        -9.8135   -3.7407   59.0493 H       1  ZINC000546142192    0.0600
     36 H36       -13.4436   -1.3713   56.8417 H       1  ZINC000546142192    0.0600
     37 H37       -13.5605   -1.4943   55.0699 H       1  ZINC000546142192    0.0800
     38 H38       -13.3291   -2.9616   56.0505 H       1  ZINC000546142192    0.0700
     39 H39       -12.0466    0.2705   55.2376 H       1  ZINC000546142192    0.0800
     40 H40       -11.0603    0.1675   56.7158 H       1  ZINC000546142192    0.0800
     41 H41        -8.7560    0.4357   56.5758 H       1  ZINC000546142192    0.1300
     42 H42        -6.7089    0.6938   55.2343 H       1  ZINC000546142192    0.1400
     43 H43        -6.0949   -0.4393   52.2174 H       1  ZINC000546142192    0.4100
     44 H44        -4.4324    0.9220   51.3051 H       1  ZINC000546142192    0.4000
     45 H45        -4.5056    3.3924   50.5166 H       1  ZINC000546142192    0.0800
     46 H46        -4.6602    3.7145   52.2604 H       1  ZINC000546142192    0.1000
     47 H47        -0.0038    2.9072   53.2784 H       1  ZINC000546142192    0.1700
     48 H48         0.3064    2.6369   50.6857 H       1  ZINC000546142192    0.1800
     49 H49        -3.1064    3.2255   49.0128 H       1  ZINC000546142192    0.1000
     50 H50        -1.3746    3.0565   48.6381 H       1  ZINC000546142192    0.0900
     51 H51        -1.6468    0.5816   49.3477 H       1  ZINC000546142192    0.0800
     52 H52        -3.3994    0.8709   49.2342 H       1  ZINC000546142192    0.0800
     53 H53        -1.6927   -1.0156   47.4933 H       1  ZINC000546142192    0.1200
     54 H54        -1.5810   -1.2984   45.0498 H       1  ZINC000546142192    0.1200
     55 H55        -2.1777    0.5734   43.5653 H       1  ZINC000546142192    0.1200
     56 H56        -2.8868    2.7276   44.5243 H       1  ZINC000546142192    0.1200
     57 H57        -3.0030    3.0089   46.9679 H       1  ZINC000546142192    0.1200
     58 H58        -8.8990   -0.3400   51.7101 H       1  ZINC000546142192    0.1300
     59 H59       -10.9396   -0.6009   53.0613 H       1  ZINC000546142192    0.1300
@<TRIPOS>BOND
     1     1     2    1
     2     1    33    1
     3     1    34    1
     4     1    35    1
     5     2     3    1
     6     3     4    2
     7     3     5    1
     8     5     6    1
     9     5     7    1
    10     5     8    1
    11     7    36    1
    12     7    37    1
    13     7    38    1
    14     8     9    1
    15     8    39    1
    16     8    40    1
    17     9    32   ar
    18     9    10   ar
    19    10    11   ar
    20    10    41    1
    21    11    12   ar
    22    11    42    1
    23    12    13    1
    24    12    31   ar
    25    13    14   am
    26    13    43    1
    27    14    15    2
    28    14    16   am
    29    16    17    1
    30    16    44    1
    31    17    18    1
    32    17    45    1
    33    17    46    1
    34    18    22    1
    35    18    19    2
    36    19    20    1
    37    20    21    2
    38    20    47    1
    39    21    22    1
    40    21    48    1
    41    22    23    1
    42    23    24    1
    43    23    49    1
    44    23    50    1
    45    24    25    1
    46    24    51    1
    47    24    52    1
    48    25    30   ar
    49    25    26   ar
    50    26    27   ar
    51    26    53    1
    52    27    28   ar
    53    27    54    1
    54    28    29   ar
    55    28    55    1
    56    29    30   ar
    57    29    56    1
    58    30    57    1
    59    31    32   ar
    60    31    58    1
    61    32    59    1
@<TRIPOS>SUBSTRUCTURE
     1 ZINC000546142192        1 TEMP              0 ****  ****    0 ROOT


##########                                Name:    ZINC000008416770
##########                DOCK_Rotatable_Bonds:                  13
##########                         Heavy_Atoms:                  30
##########                    Molecular_Weight:             412.442
##########                DOCK_Rotatable_Bonds:                  13
##########                       Formal_Charge:          -0.0199998
##########                     HBond_Acceptors:                   8
##########                        HBond_Donors:                   2
##########                         Heavy_Atoms:                  30
##########                          Grid_Score:          -37.901485
##########                     Grid_vdw_energy:          -38.056915
##########                      Grid_es_energy:            0.155431
##########           Internal_energy_repulsive:            9.837626

@<TRIPOS>MOLECULE
ZINC000008416770
 54 55 1 0 0
SMALL
USER_CHARGES


@<TRIPOS>ATOM
      1 C1         -8.6927   -1.1241   60.7923 C.3     1  ZINC000008416770   -0.1500
      2 C2         -9.1575   -1.8331   59.5186 C.3     1  ZINC000008416770    0.0600
      3 O3        -10.5967   -2.0193   59.5661 O.3     1  ZINC000008416770   -0.3500
      4 C4        -11.1798   -2.5596   58.4780 C.2     1  ZINC000008416770    0.5100
      5 O5        -12.1345   -3.3003   58.6050 O.2     1  ZINC000008416770   -0.5100
      6 C6        -10.6591   -2.2519   57.1331 C.ar    1  ZINC000008416770   -0.1500
      7 C7        -10.2593   -3.2871   56.2827 C.ar    1  ZINC000008416770   -0.0400
      8 C8         -9.7742   -2.9961   55.0278 C.ar    1  ZINC000008416770   -0.1400
      9 C9         -9.6814   -1.6736   54.6054 C.ar    1  ZINC000008416770    0.1800
     10 N10        -9.1895   -1.3827   53.3338 N.am    1  ZINC000008416770   -0.6700
     11 C11        -8.1351   -0.5553   53.1921 C.2     1  ZINC000008416770    0.5200
     12 O12        -7.6140   -0.0641   54.1709 O.2     1  ZINC000008416770   -0.5100
     13 C13        -7.6034   -0.2409   51.8175 C.3     1  ZINC000008416770   -0.1300
     14 C14        -6.1094   -0.5665   51.7618 C.3     1  ZINC000008416770   -0.1000
     15 C15        -5.3211    0.7117   51.6359 C.2     1  ZINC000008416770    0.4700
     16 O16        -5.4442    1.5816   52.4654 O.2     1  ZINC000008416770   -0.5100
     17 O17        -4.4823    0.8838   50.6022 O.3     1  ZINC000008416770   -0.3300
     18 C18        -4.0039    2.2330   50.3591 C.3     1  ZINC000008416770    0.0500
     19 C19        -2.9839    2.2120   49.2499 C.2     1  ZINC000008416770    0.5100
     20 O20        -2.0630    3.0013   49.2577 O.2     1  ZINC000008416770   -0.4900
     21 N21        -3.0949    1.3160   48.2493 N.am    1  ZINC000008416770   -0.6700
     22 C22        -2.1479    1.2964   47.2194 C.ar    1  ZINC000008416770    0.1400
     23 C23        -2.4572    1.8395   45.9793 C.ar    1  ZINC000008416770   -0.1400
     24 C24        -1.5202    1.8186   44.9647 C.ar    1  ZINC000008416770   -0.1000
     25 C25        -0.2755    1.2574   45.1828 C.ar    1  ZINC000008416770   -0.1000
     26 C26         0.7444    1.2359   44.0734 C.3     1  ZINC000008416770   -0.1200
     27 C27         0.0358    0.7162   46.4166 C.ar    1  ZINC000008416770   -0.1000
     28 C28        -0.8947    0.7391   47.4369 C.ar    1  ZINC000008416770   -0.1200
     29 C29       -10.0788   -0.6407   55.4489 C.ar    1  ZINC000008416770   -0.1600
     30 C30       -10.5695   -0.9245   56.7033 C.ar    1  ZINC000008416770   -0.0300
     31 H31        -9.1824   -0.1532   60.8670 H       1  ZINC000008416770    0.0700
     32 H32        -8.9523   -1.7299   61.6606 H       1  ZINC000008416770    0.0700
     33 H33        -7.6123   -0.9845   60.7567 H       1  ZINC000008416770    0.0800
     34 H34        -8.8979   -1.2276   58.6504 H       1  ZINC000008416770    0.0700
     35 H35        -8.6678   -2.8041   59.4439 H       1  ZINC000008416770    0.0700
     36 H36       -10.3307   -4.3137   56.6101 H       1  ZINC000008416770    0.1400
     37 H37        -9.4648   -3.7952   54.3705 H       1  ZINC000008416770    0.1400
     38 H38        -9.6062   -1.7757   52.5509 H       1  ZINC000008416770    0.4200
     39 H39        -8.1336   -0.8397   51.0770 H       1  ZINC000008416770    0.1100
     40 H40        -7.7527    0.8175   51.6036 H       1  ZINC000008416770    0.1100
     41 H41        -5.8165   -1.0856   52.6743 H       1  ZINC000008416770    0.1200
     42 H42        -5.9084   -1.2038   50.9007 H       1  ZINC000008416770    0.1200
     43 H43        -4.8410    2.8689   50.0710 H       1  ZINC000008416770    0.1100
     44 H44        -3.5455    2.6251   51.2669 H       1  ZINC000008416770    0.1100
     45 H45        -3.8313    0.6847   48.2430 H       1  ZINC000008416770    0.4100
     46 H46        -3.4295    2.2773   45.8082 H       1  ZINC000008416770    0.1300
     47 H47        -1.7602    2.2408   44.0001 H       1  ZINC000008416770    0.1300
     48 H48         1.3472    2.1430   44.1164 H       1  ZINC000008416770    0.0700
     49 H49         1.3895    0.3650   44.1897 H       1  ZINC000008416770    0.0700
     50 H50         0.2340    1.1840   43.1116 H       1  ZINC000008416770    0.0700
     51 H51         1.0090    0.2785   46.5837 H       1  ZINC000008416770    0.1300
     52 H52        -0.6510    0.3162   48.4005 H       1  ZINC000008416770    0.1300
     53 H53       -10.0057    0.3846   55.1176 H       1  ZINC000008416770    0.1400
     54 H54       -10.8776   -0.1224   57.3575 H       1  ZINC000008416770    0.1400
@<TRIPOS>BOND
     1     1     2    1
     2     1    31    1
     3     1    32    1
     4     1    33    1
     5     2     3    1
     6     2    34    1
     7     2    35    1
     8     3     4    1
     9     4     5    2
    10     4     6    1
    11     6    30   ar
    12     6     7   ar
    13     7     8   ar
    14     7    36    1
    15     8     9   ar
    16     8    37    1
    17     9    10    1
    18     9    29   ar
    19    10    11   am
    20    10    38    1
    21    11    12    2
    22    11    13    1
    23    13    14    1
    24    13    39    1
    25    13    40    1
    26    14    15    1
    27    14    41    1
    28    14    42    1
    29    15    16    2
    30    15    17    1
    31    17    18    1
    32    18    19    1
    33    18    43    1
    34    18    44    1
    35    19    20    2
    36    19    21   am
    37    21    22    1
    38    21    45    1
    39    22    28   ar
    40    22    23   ar
    41    23    24   ar
    42    23    46    1
    43    24    25   ar
    44    24    47    1
    45    25    26    1
    46    25    27   ar
    47    26    48    1
    48    26    49    1
    49    26    50    1
    50    27    28   ar
    51    27    51    1
    52    28    52    1
    53    29    30   ar
    54    29    53    1
    55    30    54    1
@<TRIPOS>SUBSTRUCTURE
     1 ZINC000008416770        1 TEMP              0 ****  ****    0 ROOT


##########                                Name:    ZINC001573443776
##########                DOCK_Rotatable_Bonds:                   8
##########                         Heavy_Atoms:                  28
##########                    Molecular_Weight:             386.457
##########                DOCK_Rotatable_Bonds:                   8
##########                       Formal_Charge:          0.00999954
##########                     HBond_Acceptors:                  10
##########                        HBond_Donors:                   3
##########                         Heavy_Atoms:                  28
##########                          Grid_Score:          -37.832573
##########                     Grid_vdw_energy:          -37.508121
##########                      Grid_es_energy:           -0.324452
##########           Internal_energy_repulsive:           37.283401

@<TRIPOS>MOLECULE
ZINC001573443776
 54 56 1 0 0
SMALL
USER_CHARGES


@<TRIPOS>ATOM
      1 C1        -10.0336   -1.0988   51.7199 C.3     1  ZINC001573443776   -0.1800
      2 C2         -8.6944   -0.4252   51.5651 C.2     1  ZINC001573443776    0.5100
      3 O3         -8.1764   -0.3498   50.4710 O.2     1  ZINC001573443776   -0.5400
      4 N4         -8.0724    0.0934   52.6424 N.am    1  ZINC001573443776   -0.6100
      5 C5         -8.6873    0.0098   53.9742 C.3     1  ZINC001573443776    0.1100
      6 C6         -8.7533    1.4171   54.5760 C.3     1  ZINC001573443776   -0.1300
      7 C7         -7.3543    2.0373   54.5675 C.3     1  ZINC001573443776   -0.1000
      8 C8         -6.8539    2.1516   53.1257 C.3     1  ZINC001573443776   -0.1200
      9 H9         -7.5472    2.7623   52.5472 H       1  ZINC001573443776    0.1000
     10 C10        -5.4901    2.7929   53.1159 C.2     1  ZINC001573443776    0.5200
     11 O11        -5.1942    3.6017   53.9697 O.2     1  ZINC001573443776   -0.5300
     12 N12        -4.5994    2.4674   52.1582 N.am    1  ZINC001573443776   -0.7300
     13 C13        -3.2730    3.0895   52.1498 C.3     1  ZINC001573443776    0.1100
     14 C14        -2.6832    3.0136   50.7400 C.3     1  ZINC001573443776    0.1400
     15 H15        -3.2052    3.7152   50.0896 H       1  ZINC001573443776    0.0900
     16 C16        -1.1967    3.3728   50.7891 C.3     1  ZINC001573443776   -0.1700
     17 N17        -2.8399    1.6539   50.2176 N.pl3   1  ZINC001573443776   -0.7200
     18 C18        -2.5558    1.3850   48.8846 C.ar    1  ZINC001573443776    0.4300
     19 C19        -3.2370    2.0730   47.8846 C.ar    1  ZINC001573443776   -0.2500
     20 C20        -2.9483    1.8001   46.5618 C.ar    1  ZINC001573443776    0.0100
     21 C21        -1.9754    0.8357   46.2783 C.ar    1  ZINC001573443776   -0.1400
     22 C22        -1.6290    0.5070   44.8730 C.2     1  ZINC001573443776    0.2400
     23 N23        -2.3135   -0.2663   44.0535 N.2     1  ZINC001573443776   -0.3000
     24 N24        -1.6874   -0.2998   42.9277 N.pl3   1  ZINC001573443776   -0.2300
     25 N25        -0.6282    0.4275   43.0076 N.2     1  ZINC001573443776   -0.0500
     26 N26        -0.5625    0.9434   44.1879 N.2     1  ZINC001573443776   -0.2700
     27 C27        -1.3363    0.1890   47.3319 C.ar    1  ZINC001573443776    0.2300
     28 C28        -0.2863   -0.8520   47.0409 C.3     1  ZINC001573443776   -0.1200
     29 N29        -1.6362    0.4809   48.5815 N.ar    1  ZINC001573443776   -0.5400
     30 C30        -6.7638    0.7478   52.5083 C.3     1  ZINC001573443776    0.1200
     31 H31        -9.8887   -2.1729   51.8355 H       1  ZINC001573443776    0.0900
     32 H32       -10.5394   -0.7035   52.6007 H       1  ZINC001573443776    0.0800
     33 H33       -10.6410   -0.9072   50.8354 H       1  ZINC001573443776    0.1000
     34 H34        -9.6944   -0.3978   53.8867 H       1  ZINC001573443776    0.1000
     35 H35        -8.0847   -0.6338   54.6151 H       1  ZINC001573443776    0.0700
     36 H36        -9.4288    2.0346   53.9839 H       1  ZINC001573443776    0.0700
     37 H37        -9.1186    1.3575   55.6012 H       1  ZINC001573443776    0.0800
     38 H38        -7.3940    3.0292   55.0177 H       1  ZINC001573443776    0.0800
     39 H39        -6.6738    1.4063   55.1390 H       1  ZINC001573443776    0.0700
     40 H40        -4.8364    1.8214   51.4747 H       1  ZINC001573443776    0.4000
     41 H41        -3.3592    4.1332   52.4519 H       1  ZINC001573443776    0.0900
     42 H42        -2.6201    2.5625   52.8456 H       1  ZINC001573443776    0.0800
     43 H43        -1.0801    4.3844   51.1779 H       1  ZINC001573443776    0.0700
     44 H44        -0.6746    2.6711   51.4396 H       1  ZINC001573443776    0.0700
     45 H45        -0.7765    3.3189   49.7849 H       1  ZINC001573443776    0.0700
     46 H46        -3.1422    0.9415   50.8023 H       1  ZINC001573443776    0.4100
     47 H47        -3.9826    2.8113   48.1400 H       1  ZINC001573443776    0.1400
     48 H48        -3.4616    2.3186   45.7655 H       1  ZINC001573443776    0.1400
     49 H49        -1.9697   -0.7956   42.1432 H       1  ZINC001573443776    0.4800
     50 H50         0.6915   -0.3744   46.9785 H       1  ZINC001573443776    0.0800
     51 H51        -0.2782   -1.5933   47.8400 H       1  ZINC001573443776    0.0800
     52 H52        -0.5126   -1.3415   46.0936 H       1  ZINC001573443776    0.1100
     53 H53        -6.0036    0.1669   53.0307 H       1  ZINC001573443776    0.0800
     54 H54        -6.5035    0.8287   51.4529 H       1  ZINC001573443776    0.0900
@<TRIPOS>BOND
     1     1     2    1
     2     1    31    1
     3     1    32    1
     4     1    33    1
     5     2     3    2
     6     2     4   am
     7     4    30    1
     8     4     5    1
     9     5     6    1
    10     5    34    1
    11     5    35    1
    12     6     7    1
    13     6    36    1
    14     6    37    1
    15     7     8    1
    16     7    38    1
    17     7    39    1
    18     8     9    1
    19     8    10    1
    20     8    30    1
    21    10    11    2
    22    10    12   am
    23    12    13    1
    24    12    40    1
    25    13    14    1
    26    13    41    1
    27    13    42    1
    28    14    15    1
    29    14    16    1
    30    14    17    1
    31    16    43    1
    32    16    44    1
    33    16    45    1
    34    17    18    1
    35    17    46    1
    36    18    29   ar
    37    18    19   ar
    38    19    20   ar
    39    19    47    1
    40    20    21   ar
    41    20    48    1
    42    21    22    1
    43    21    27   ar
    44    22    26    1
    45    22    23    2
    46    23    24    1
    47    24    25    1
    48    24    49    1
    49    25    26    2
    50    27    28    1
    51    27    29   ar
    52    28    50    1
    53    28    51    1
    54    28    52    1
    55    30    53    1
    56    30    54    1
@<TRIPOS>SUBSTRUCTURE
     1 ZINC001573443776        1 TEMP              0 ****  ****    0 ROOT


##########                                Name:    ZINC000435005159
##########                DOCK_Rotatable_Bonds:                  12
##########                         Heavy_Atoms:                  30
##########                    Molecular_Weight:             401.508
##########                DOCK_Rotatable_Bonds:                  12
##########                       Formal_Charge:          -0.0399985
##########                     HBond_Acceptors:                   5
##########                        HBond_Donors:                   2
##########                         Heavy_Atoms:                  30
##########                          Grid_Score:          -37.637447
##########                     Grid_vdw_energy:          -37.757492
##########                      Grid_es_energy:            0.120046
##########           Internal_energy_repulsive:           12.217400

@<TRIPOS>MOLECULE
ZINC000435005159
 57 59 1 0 0
SMALL
USER_CHARGES


@<TRIPOS>ATOM
      1 O1         -4.0675    1.6388   49.9712 O.2     1  ZINC000435005159   -0.5300
      2 C2         -3.1886    2.3395   50.4267 C.2     1  ZINC000435005159    0.5200
      3 C3         -3.2781    2.8317   51.8482 C.3     1  ZINC000435005159   -0.1400
      4 C4         -1.8934    2.7730   52.4965 C.3     1  ZINC000435005159   -0.1200
      5 C5         -2.0214    3.0397   53.9975 C.3     1  ZINC000435005159    0.1200
      6 N6         -0.7136    2.8725   54.6364 N.am    1  ZINC000435005159   -0.7200
      7 C7         -0.6359    2.4280   55.9064 C.2     1  ZINC000435005159    0.5600
      8 O8         -1.6510    2.1672   56.5222 O.2     1  ZINC000435005159   -0.5300
      9 C9          0.6839    2.2575   56.5505 C.ar    1  ZINC000435005159   -0.1900
     10 C10         0.7761    1.9195   57.9057 C.ar    1  ZINC000435005159   -0.0200
     11 C11         2.0353    1.7712   58.4606 C.ar    1  ZINC000435005159   -0.1800
     12 C12         3.1516    1.9599   57.6661 C.ar    1  ZINC000435005159    0.1200
     13 N13         3.0342    2.2788   56.3910 N.ar    1  ZINC000435005159   -0.4900
     14 C14         1.8588    2.4253   55.8162 C.ar    1  ZINC000435005159    0.1400
     15 N15        -2.1291    2.6732   49.6635 N.am    1  ZINC000435005159   -0.7300
     16 C16        -2.0421    2.1947   48.2816 C.3     1  ZINC000435005159    0.1900
     17 H17        -3.0388    2.1741   47.8407 H       1  ZINC000435005159    0.1000
     18 C18        -1.1457    3.1340   47.4721 C.3     1  ZINC000435005159   -0.1200
     19 C19        -1.7645    3.3660   46.0922 C.3     1  ZINC000435005159   -0.0800
     20 C20        -1.0418    2.5270   45.0701 C.ar    1  ZINC000435005159   -0.0800
     21 C21         0.2628    2.8281   44.7262 C.ar    1  ZINC000435005159   -0.1200
     22 C22         0.9258    2.0584   43.7887 C.ar    1  ZINC000435005159   -0.1200
     23 C23         0.2842    0.9873   43.1953 C.ar    1  ZINC000435005159   -0.1200
     24 C24        -1.0201    0.6857   43.5398 C.ar    1  ZINC000435005159   -0.1200
     25 C25        -1.6816    1.4527   44.4806 C.ar    1  ZINC000435005159   -0.1200
     26 C26        -1.4575    0.8058   48.2668 C.ar    1  ZINC000435005159   -0.1000
     27 C27        -0.3877    0.4975   49.0861 C.ar    1  ZINC000435005159   -0.1100
     28 C28         0.1486   -0.7765   49.0726 C.ar    1  ZINC000435005159   -0.1200
     29 C29        -0.3853   -1.7424   48.2400 C.ar    1  ZINC000435005159   -0.1200
     30 C30        -1.4557   -1.4342   47.4214 C.ar    1  ZINC000435005159   -0.1200
     31 C31        -1.9947   -0.1615   47.4381 C.ar    1  ZINC000435005159   -0.1000
     32 H32        -3.6389    3.8604   51.8545 H       1  ZINC000435005159    0.1000
     33 H33        -3.9685    2.2012   52.4084 H       1  ZINC000435005159    0.1000
     34 H34        -1.4599    1.7855   52.3384 H       1  ZINC000435005159    0.0800
     35 H35        -1.2494    3.5287   52.0467 H       1  ZINC000435005159    0.0800
     36 H36        -2.3759    4.0580   54.1568 H       1  ZINC000435005159    0.0700
     37 H37        -2.7307    2.3357   54.4325 H       1  ZINC000435005159    0.0700
     38 H38         0.0964    3.0817   54.1454 H       1  ZINC000435005159    0.4000
     39 H39        -0.1126    1.7783   58.5032 H       1  ZINC000435005159    0.1500
     40 H40         2.1451    1.5113   59.5030 H       1  ZINC000435005159    0.1500
     41 H41         4.1354    1.8448   58.0965 H       1  ZINC000435005159    0.1600
     42 H42         1.8034    2.6865   54.7697 H       1  ZINC000435005159    0.1600
     43 H43        -1.4242    3.2304   50.0292 H       1  ZINC000435005159    0.4000
     44 H44        -1.0530    4.0867   47.9936 H       1  ZINC000435005159    0.0700
     45 H45        -0.1591    2.6852   47.3571 H       1  ZINC000435005159    0.0800
     46 H46        -2.8174    3.0849   46.1142 H       1  ZINC000435005159    0.0700
     47 H47        -1.6751    4.4193   45.8263 H       1  ZINC000435005159    0.0700
     48 H48         0.7640    3.6650   45.1898 H       1  ZINC000435005159    0.1200
     49 H49         1.9448    2.2941   43.5195 H       1  ZINC000435005159    0.1200
     50 H50         0.8020    0.3864   42.4623 H       1  ZINC000435005159    0.1200
     51 H51        -1.5214   -0.1510   43.0760 H       1  ZINC000435005159    0.1200
     52 H52        -2.7006    1.2170   44.7497 H       1  ZINC000435005159    0.1200
     53 H53         0.0295    1.2521   49.7365 H       1  ZINC000435005159    0.1200
     54 H54         0.9850   -1.0172   49.7121 H       1  ZINC000435005159    0.1200
     55 H55         0.0341   -2.7375   48.2290 H       1  ZINC000435005159    0.1200
     56 H56        -1.8726   -2.1887   46.7708 H       1  ZINC000435005159    0.1200
     57 H57        -2.8311    0.0792   46.7986 H       1  ZINC000435005159    0.1200
@<TRIPOS>BOND
     1     1     2    2
     2     2     3    1
     3     2    15   am
     4     3     4    1
     5     3    32    1
     6     3    33    1
     7     4     5    1
     8     4    34    1
     9     4    35    1
    10     5     6    1
    11     5    36    1
    12     5    37    1
    13     6     7   am
    14     6    38    1
    15     7     8    2
    16     7     9    1
    17     9    14   ar
    18     9    10   ar
    19    10    11   ar
    20    10    39    1
    21    11    12   ar
    22    11    40    1
    23    12    13   ar
    24    12    41    1
    25    13    14   ar
    26    14    42    1
    27    15    16    1
    28    15    43    1
    29    16    17    1
    30    16    18    1
    31    16    26    1
    32    18    19    1
    33    18    44    1
    34    18    45    1
    35    19    20    1
    36    19    46    1
    37    19    47    1
    38    20    25   ar
    39    20    21   ar
    40    21    22   ar
    41    21    48    1
    42    22    23   ar
    43    22    49    1
    44    23    24   ar
    45    23    50    1
    46    24    25   ar
    47    24    51    1
    48    25    52    1
    49    26    31   ar
    50    26    27   ar
    51    27    28   ar
    52    27    53    1
    53    28    29   ar
    54    28    54    1
    55    29    30   ar
    56    29    55    1
    57    30    31   ar
    58    30    56    1
    59    31    57    1
@<TRIPOS>SUBSTRUCTURE
     1 ZINC000435005159        1 TEMP              0 ****  ****    0 ROOT


##########                                Name:    ZINC000482187991
##########                DOCK_Rotatable_Bonds:                  11
##########                         Heavy_Atoms:                  29
##########                    Molecular_Weight:             407.414
##########                DOCK_Rotatable_Bonds:                  11
##########                       Formal_Charge:           0.0299996
##########                     HBond_Acceptors:                   8
##########                        HBond_Donors:                   1
##########                         Heavy_Atoms:                  29
##########                          Grid_Score:          -37.425415
##########                     Grid_vdw_energy:          -37.003494
##########                      Grid_es_energy:           -0.421922
##########           Internal_energy_repulsive:           58.931210

@<TRIPOS>MOLECULE
ZINC000482187991
 52 53 1 0 0
SMALL
USER_CHARGES


@<TRIPOS>ATOM
      1 C1         -1.7189    0.3436   44.4519 C.3     1  ZINC000482187991    0.0200
      2 O2         -2.1881   -0.3111   45.6323 O.3     1  ZINC000482187991   -0.3000
      3 C3         -1.8159    0.2255   46.8253 C.ar    1  ZINC000482187991    0.1400
      4 C4         -2.4666    1.3421   47.3125 C.ar    1  ZINC000482187991   -0.1700
      5 C5         -2.0830    1.8934   48.5409 C.ar    1  ZINC000482187991   -0.1000
      6 C6         -2.7727    3.0804   49.0626 C.2     1  ZINC000482187991    0.4000
      7 O7         -2.8991    4.0642   48.3643 O.2     1  ZINC000482187991   -0.4500
      8 C8         -3.3236    3.0762   50.4653 C.3     1  ZINC000482187991   -0.1500
      9 C9         -4.1882    1.8307   50.6700 C.3     1  ZINC000482187991   -0.1300
     10 C10        -4.9731    1.9687   51.9490 C.2     1  ZINC000482187991    0.5200
     11 O11        -4.5125    2.5973   52.8783 O.2     1  ZINC000482187991   -0.5200
     12 N12        -6.1868    1.3934   52.0602 N.am    1  ZINC000482187991   -0.7200
     13 C13        -6.9491    1.5261   53.3043 C.3     1  ZINC000482187991    0.1500
     14 H14        -6.2613    1.5715   54.1487 H       1  ZINC000482187991    0.1300
     15 C15        -7.8618    0.3375   53.4633 C.ar    1  ZINC000482187991   -0.1100
     16 C16        -8.3943   -0.2793   52.3467 C.ar    1  ZINC000482187991   -0.1000
     17 C17        -9.2315   -1.3695   52.4925 C.ar    1  ZINC000482187991   -0.1200
     18 C18        -9.5360   -1.8432   53.7550 C.ar    1  ZINC000482187991   -0.1100
     19 C19        -9.0028   -1.2269   54.8716 C.ar    1  ZINC000482187991   -0.1200
     20 C20        -8.1621   -0.1394   54.7256 C.ar    1  ZINC000482187991   -0.1000
     21 C21        -7.7839    2.8074   53.2568 C.3     1  ZINC000482187991    0.2500
     22 F22        -8.5310    2.9211   54.4341 F       1  ZINC000482187991   -0.1900
     23 F23        -6.9351    3.9127   53.1344 F       1  ZINC000482187991   -0.2000
     24 C24        -1.0404    1.3101   49.2711 C.ar    1  ZINC000482187991   -0.1900
     25 C25        -0.3943    0.1936   48.7775 C.ar    1  ZINC000482187991    0.1400
     26 O26         0.6182   -0.3740   49.4862 O.3     1  ZINC000482187991   -0.3000
     27 C27         1.2064    0.4148   50.5224 C.3     1  ZINC000482187991    0.0200
     28 C28        -0.7824   -0.3553   47.5572 C.ar    1  ZINC000482187991    0.0600
     29 O29        -0.1449   -1.4537   47.0751 O.3     1  ZINC000482187991   -0.3100
     30 C30         0.9147   -1.9898   47.8700 C.3     1  ZINC000482187991    0.0400
     31 H31        -2.0872   -0.1848   43.5726 H       1  ZINC000482187991    0.1100
     32 H32        -2.0829    1.3710   44.4372 H       1  ZINC000482187991    0.0600
     33 H33        -0.6289    0.3442   44.4456 H       1  ZINC000482187991    0.0600
     34 H34        -3.2702    1.7895   46.7464 H       1  ZINC000482187991    0.1500
     35 H35        -2.4998    3.0681   51.1791 H       1  ZINC000482187991    0.1100
     36 H36        -3.9297    3.9687   50.6202 H       1  ZINC000482187991    0.1100
     37 H37        -4.8761    1.7240   49.8312 H       1  ZINC000482187991    0.1000
     38 H38        -3.5486    0.9501   50.7295 H       1  ZINC000482187991    0.1000
     39 H39        -6.5557    0.8916   51.3165 H       1  ZINC000482187991    0.4100
     40 H40        -8.1565    0.0908   51.3602 H       1  ZINC000482187991    0.1200
     41 H41        -9.6482   -1.8511   51.6201 H       1  ZINC000482187991    0.1300
     42 H42       -10.1907   -2.6946   53.8689 H       1  ZINC000482187991    0.1300
     43 H43        -9.2410   -1.5968   55.8579 H       1  ZINC000482187991    0.1300
     44 H44        -7.7456    0.3420   55.5979 H       1  ZINC000482187991    0.1300
     45 H45        -8.4579    2.7704   52.4009 H       1  ZINC000482187991    0.1200
     46 H46        -0.7416    1.7329   50.2189 H       1  ZINC000482187991    0.1500
     47 H47         1.6240    1.3257   50.0932 H       1  ZINC000482187991    0.0600
     48 H48         0.4448    0.6756   51.2574 H       1  ZINC000482187991    0.0600
     49 H49         1.9992   -0.1549   51.0072 H       1  ZINC000482187991    0.1100
     50 H50         1.6898   -1.2345   47.9994 H       1  ZINC000482187991    0.0500
     51 H51         0.5254   -2.2816   48.8455 H       1  ZINC000482187991    0.0500
     52 H52         1.3371   -2.8623   47.3716 H       1  ZINC000482187991    0.1000
@<TRIPOS>BOND
     1     1     2    1
     2     1    31    1
     3     1    32    1
     4     1    33    1
     5     2     3    1
     6     3    28   ar
     7     3     4   ar
     8     4     5   ar
     9     4    34    1
    10     5     6    1
    11     5    24   ar
    12     6     7    2
    13     6     8    1
    14     8     9    1
    15     8    35    1
    16     8    36    1
    17     9    10    1
    18     9    37    1
    19     9    38    1
    20    10    11    2
    21    10    12   am
    22    12    13    1
    23    12    39    1
    24    13    14    1
    25    13    15    1
    26    13    21    1
    27    15    20   ar
    28    15    16   ar
    29    16    17   ar
    30    16    40    1
    31    17    18   ar
    32    17    41    1
    33    18    19   ar
    34    18    42    1
    35    19    20   ar
    36    19    43    1
    37    20    44    1
    38    21    22    1
    39    21    23    1
    40    21    45    1
    41    24    25   ar
    42    24    46    1
    43    25    26    1
    44    25    28   ar
    45    26    27    1
    46    27    47    1
    47    27    48    1
    48    27    49    1
    49    28    29    1
    50    29    30    1
    51    30    50    1
    52    30    51    1
    53    30    52    1
@<TRIPOS>SUBSTRUCTURE
     1 ZINC000482187991        1 TEMP              0 ****  ****    0 ROOT


##########                                Name:    ZINC000512699033
##########                DOCK_Rotatable_Bonds:                   9
##########                         Heavy_Atoms:                  30
##########                    Molecular_Weight:              405.54
##########                DOCK_Rotatable_Bonds:                   9
##########                       Formal_Charge:           0.0199988
##########                     HBond_Acceptors:                   5
##########                        HBond_Donors:                   2
##########                         Heavy_Atoms:                  30
##########                          Grid_Score:          -37.391319
##########                     Grid_vdw_energy:          -36.855846
##########                      Grid_es_energy:           -0.535472
##########           Internal_energy_repulsive:           13.312148

@<TRIPOS>MOLECULE
ZINC000512699033
 61 64 1 0 0
SMALL
USER_CHARGES


@<TRIPOS>ATOM
      1 O1         -9.3436    0.6761   51.1499 O.2     1  ZINC000512699033   -0.5100
      2 C2         -8.9034   -0.4220   51.4174 C.2     1  ZINC000512699033    0.5200
      3 C3         -7.5584   -0.8447   50.8851 C.3     1  ZINC000512699033   -0.1500
      4 C4         -6.5183   -0.7628   52.0042 C.3     1  ZINC000512699033    0.1300
      5 N5         -5.5167    0.2516   51.6669 N.am    1  ZINC000512699033   -0.7300
      6 C6         -5.7018    1.5325   52.0433 C.2     1  ZINC000512699033    0.5200
      7 O7         -6.6981    1.8456   52.6597 O.2     1  ZINC000512699033   -0.5300
      8 C8         -4.6705    2.5758   51.6978 C.3     1  ZINC000512699033   -0.1100
      9 C9         -3.6368    2.6631   52.8224 C.3     1  ZINC000512699033   -0.1100
     10 C10        -2.5899    3.7223   52.4716 C.3     1  ZINC000512699033   -0.1200
     11 C11        -1.8918    3.3367   51.1660 C.3     1  ZINC000512699033   -0.1200
     12 C12        -2.9256    3.2494   50.0414 C.3     1  ZINC000512699033   -0.1200
     13 C13        -3.9725    2.1902   50.3921 C.3     1  ZINC000512699033   -0.1000
     14 N14        -9.6147   -1.2621   52.1950 N.am    1  ZINC000512699033   -0.6600
     15 C15       -10.8636   -0.8696   52.6892 C.ar    1  ZINC000512699033    0.1700
     16 C16       -11.9140   -0.6289   51.8135 C.ar    1  ZINC000512699033   -0.1400
     17 C17       -13.1458   -0.2421   52.3046 C.ar    1  ZINC000512699033   -0.1000
     18 C18       -13.3333   -0.0941   53.6665 C.ar    1  ZINC000512699033   -0.1400
     19 C19       -12.2891   -0.3330   54.5412 C.ar    1  ZINC000512699033   -0.0900
     20 C20       -11.0568   -0.7255   54.0570 C.ar    1  ZINC000512699033   -0.1200
     21 C21        -9.9196   -0.9858   55.0109 C.3     1  ZINC000512699033    0.0900
     22 N22       -10.4556   -1.4573   56.2949 N.3     1  ZINC000512699033   -0.4700
     23 C23       -10.6469   -2.9239   56.2829 C.3     1  ZINC000512699033    0.0500
     24 C24       -10.4112   -3.3078   57.7618 C.3     1  ZINC000512699033   -0.0900
     25 C25        -9.5169   -2.1906   58.2612 C.ar    1  ZINC000512699033   -0.1400
     26 C26        -8.7263   -2.0852   59.3858 C.ar    1  ZINC000512699033   -0.0800
     27 C27        -7.9890   -0.9362   59.6100 C.ar    1  ZINC000512699033   -0.1400
     28 C28        -8.0460    0.1067   58.7038 C.ar    1  ZINC000512699033   -0.0900
     29 C29        -8.8372    0.0071   57.5782 C.ar    1  ZINC000512699033   -0.1400
     30 C30        -9.5852   -1.1458   57.3468 C.ar    1  ZINC000512699033    0.0900
     31 H31        -7.6183   -1.8696   50.5190 H       1  ZINC000512699033    0.1100
     32 H32        -7.2666   -0.1837   50.0689 H       1  ZINC000512699033    0.1000
     33 H33        -7.0102   -0.4913   52.9383 H       1  ZINC000512699033    0.0800
     34 H34        -6.0307   -1.7310   52.1185 H       1  ZINC000512699033    0.0800
     35 H35        -4.7204    0.0015   51.1728 H       1  ZINC000512699033    0.4000
     36 H36        -5.1586    3.5429   51.5770 H       1  ZINC000512699033    0.1000
     37 H37        -4.1341    2.9378   53.7525 H       1  ZINC000512699033    0.0700
     38 H38        -3.1488    1.6960   52.9431 H       1  ZINC000512699033    0.0700
     39 H39        -3.0779    4.6894   52.3508 H       1  ZINC000512699033    0.0600
     40 H40        -1.8534    3.7845   53.2727 H       1  ZINC000512699033    0.0700
     41 H41        -1.1460    4.0913   50.9161 H       1  ZINC000512699033    0.0600
     42 H42        -1.4039    2.3695   51.2867 H       1  ZINC000512699033    0.0600
     43 H43        -3.4136    4.2165   49.9205 H       1  ZINC000512699033    0.0600
     44 H44        -2.4282    2.9746   49.1112 H       1  ZINC000512699033    0.0700
     45 H45        -3.4844    1.2230   50.5130 H       1  ZINC000512699033    0.0700
     46 H46        -4.7089    2.1279   49.5909 H       1  ZINC000512699033    0.0700
     47 H47        -9.2609   -2.1387   52.4122 H       1  ZINC000512699033    0.4200
     48 H48       -11.7680   -0.7438   50.7496 H       1  ZINC000512699033    0.1500
     49 H49       -13.9631   -0.0547   51.6240 H       1  ZINC000512699033    0.1300
     50 H50       -14.2971    0.2092   54.0478 H       1  ZINC000512699033    0.1200
     51 H51       -12.4386   -0.2166   55.6045 H       1  ZINC000512699033    0.1200
     52 H52        -9.2601   -1.7456   54.5914 H       1  ZINC000512699033    0.0600
     53 H53        -9.3588   -0.0644   55.1677 H       1  ZINC000512699033    0.0900
     54 H54       -11.6606   -3.1790   55.9739 H       1  ZINC000512699033    0.1000
     55 H55        -9.9122   -3.4044   55.6369 H       1  ZINC000512699033    0.0600
     56 H56       -11.3526   -3.3234   58.3112 H       1  ZINC000512699033    0.0900
     57 H57        -9.9043   -4.2700   57.8348 H       1  ZINC000512699033    0.0800
     58 H58        -8.6827   -2.9004   60.0928 H       1  ZINC000512699033    0.1200
     59 H59        -7.3704   -0.8537   60.4914 H       1  ZINC000512699033    0.1300
     60 H60        -7.4691    1.0028   58.8782 H       1  ZINC000512699033    0.1300
     61 H61        -8.8777    0.8253   56.8743 H       1  ZINC000512699033    0.1200
@<TRIPOS>BOND
     1     1     2    2
     2     2     3    1
     3     2    14   am
     4     3     4    1
     5     3    31    1
     6     3    32    1
     7     4     5    1
     8     4    33    1
     9     4    34    1
    10     5     6   am
    11     5    35    1
    12     6     7    2
    13     6     8    1
    14     8    13    1
    15     8     9    1
    16     8    36    1
    17     9    10    1
    18     9    37    1
    19     9    38    1
    20    10    11    1
    21    10    39    1
    22    10    40    1
    23    11    12    1
    24    11    41    1
    25    11    42    1
    26    12    13    1
    27    12    43    1
    28    12    44    1
    29    13    45    1
    30    13    46    1
    31    14    15    1
    32    14    47    1
    33    15    20   ar
    34    15    16   ar
    35    16    17   ar
    36    16    48    1
    37    17    18   ar
    38    17    49    1
    39    18    19   ar
    40    18    50    1
    41    19    20   ar
    42    19    51    1
    43    20    21    1
    44    21    22    1
    45    21    52    1
    46    21    53    1
    47    22    30    1
    48    22    23    1
    49    23    24    1
    50    23    54    1
    51    23    55    1
    52    24    25    1
    53    24    56    1
    54    24    57    1
    55    25    30   ar
    56    25    26   ar
    57    26    27   ar
    58    26    58    1
    59    27    28   ar
    60    27    59    1
    61    28    29   ar
    62    28    60    1
    63    29    30   ar
    64    29    61    1
@<TRIPOS>SUBSTRUCTURE
     1 ZINC000512699033        1 TEMP              0 ****  ****    0 ROOT


##########                                Name:    ZINC000746432885
##########                DOCK_Rotatable_Bonds:                  11
##########                         Heavy_Atoms:                  31
##########                    Molecular_Weight:              419.44
##########                DOCK_Rotatable_Bonds:                  11
##########                       Formal_Charge:           0.0199995
##########                     HBond_Acceptors:                   9
##########                        HBond_Donors:                   2
##########                         Heavy_Atoms:                  31
##########                          Grid_Score:          -37.382187
##########                     Grid_vdw_energy:          -35.359177
##########                      Grid_es_energy:           -2.023008
##########           Internal_energy_repulsive:           17.023901

@<TRIPOS>MOLECULE
ZINC000746432885
 52 54 1 0 0
SMALL
USER_CHARGES


@<TRIPOS>ATOM
      1 C1         -9.6150   -1.1266   51.4553 C.3     1  ZINC000746432885    0.0300
      2 O2        -10.2652   -1.7153   52.5836 O.3     1  ZINC000746432885   -0.3200
      3 C3         -9.8235   -1.3432   53.8138 C.ar    1  ZINC000746432885    0.1300
      4 C4         -8.8907   -0.3239   53.9381 C.ar    1  ZINC000746432885   -0.2000
      5 C5         -8.4432    0.0524   55.1896 C.ar    1  ZINC000746432885   -0.0800
      6 C6         -8.9238   -0.5862   56.3178 C.ar    1  ZINC000746432885   -0.1400
      7 C7         -9.8535   -1.6024   56.1966 C.ar    1  ZINC000746432885   -0.0600
      8 C8        -10.3756   -2.2961   57.4284 C.3     1  ZINC000746432885    0.2300
      9 N9        -10.0314   -1.5089   58.6151 N.am    1  ZINC000746432885   -0.6900
     10 C10        -9.9531   -2.1064   59.8206 C.2     1  ZINC000746432885    0.5200
     11 O11       -10.1665   -3.2969   59.9229 O.2     1  ZINC000746432885   -0.5100
     12 C12        -9.6040   -1.3038   61.0304 C.2     1  ZINC000746432885    0.5100
     13 O13        -9.9773   -1.6658   62.1275 O.2     1  ZINC000746432885   -0.5100
     14 N14        -8.8745   -0.1776   60.9045 N.am    1  ZINC000746432885   -0.6100
     15 C15        -8.5446    0.5767   62.0428 C.2     1  ZINC000746432885    0.0000
     16 C16        -8.0304    0.0921   63.2031 C.2     1  ZINC000746432885    0.0400
     17 N17        -7.8561    1.1379   64.0426 N.pl3   1  ZINC000746432885   -0.3800
     18 C18        -7.3225    1.0685   65.4051 C.3     1  ZINC000746432885    0.2500
     19 C19        -7.7515   -0.1900   66.0366 C.1     1  ZINC000746432885    0.1900
     20 N20        -8.0826   -1.1613   66.5238 N.1     1  ZINC000746432885   -0.3900
     21 N21        -8.2750    2.2989   63.3806 N.2     1  ZINC000746432885   -0.2800
     22 C22        -8.6818    1.9664   62.1825 C.2     1  ZINC000746432885    0.0700
     23 C23       -11.8736   -2.4307   57.3321 C.ar    1  ZINC000746432885   -0.0500
     24 C24       -12.6616   -1.3022   57.2016 C.ar    1  ZINC000746432885   -0.1500
     25 C25       -14.0361   -1.4224   57.1125 C.ar    1  ZINC000746432885   -0.0700
     26 C26       -14.6255   -2.6711   57.1540 C.ar    1  ZINC000746432885   -0.2000
     27 C27       -13.8371   -3.8050   57.2850 C.ar    1  ZINC000746432885    0.1300
     28 O28       -14.4145   -5.0346   57.3260 O.3     1  ZINC000746432885   -0.3200
     29 C29       -14.1687   -5.9039   56.2188 C.3     1  ZINC000746432885    0.0300
     30 C30       -12.4577   -3.6820   57.3688 C.ar    1  ZINC000746432885   -0.1300
     31 C31       -10.3088   -1.9782   54.9477 C.ar    1  ZINC000746432885   -0.1300
     32 H32        -8.5548   -1.3790   51.4744 H       1  ZINC000746432885    0.0600
     33 H33       -10.0629   -1.5084   50.5378 H       1  ZINC000746432885    0.1000
     34 H34        -9.7314   -0.0435   51.4931 H       1  ZINC000746432885    0.0600
     35 H35        -8.5144    0.1748   53.0571 H       1  ZINC000746432885    0.1300
     36 H36        -7.7171    0.8460   55.2870 H       1  ZINC000746432885    0.1300
     37 H37        -8.5722   -0.2911   57.2954 H       1  ZINC000746432885    0.1200
     38 H38        -9.9261   -3.2860   57.5060 H       1  ZINC000746432885    0.1200
     39 H39        -9.8598   -0.5578   58.5332 H       1  ZINC000746432885    0.4200
     40 H40        -8.5773    0.1123   60.0278 H       1  ZINC000746432885    0.4200
     41 H41        -7.8021   -0.9417   63.4166 H       1  ZINC000746432885    0.1900
     42 H42        -6.2337    1.1053   65.3711 H       1  ZINC000746432885    0.1300
     43 H43        -7.6966    1.9121   65.9853 H       1  ZINC000746432885    0.1500
     44 H44        -9.0636    2.6435   61.4328 H       1  ZINC000746432885    0.2100
     45 H45       -12.2027   -0.3250   57.1693 H       1  ZINC000746432885    0.1200
     46 H46       -14.6496   -0.5393   57.0109 H       1  ZINC000746432885    0.1300
     47 H47       -15.6993   -2.7644   57.0848 H       1  ZINC000746432885    0.1300
     48 H48       -14.6864   -6.8500   56.3778 H       1  ZINC000746432885    0.1000
     49 H49       -14.5346   -5.4389   55.3035 H       1  ZINC000746432885    0.0600
     50 H50       -13.0977   -6.0861   56.1307 H       1  ZINC000746432885    0.0600
     51 H51       -11.8418   -4.5632   57.4708 H       1  ZINC000746432885    0.1400
     52 H52       -11.0349   -2.7721   54.8534 H       1  ZINC000746432885    0.1300
@<TRIPOS>BOND
     1     1     2    1
     2     1    32    1
     3     1    33    1
     4     1    34    1
     5     2     3    1
     6     3    31   ar
     7     3     4   ar
     8     4     5   ar
     9     4    35    1
    10     5     6   ar
    11     5    36    1
    12     6     7   ar
    13     6    37    1
    14     7     8    1
    15     7    31   ar
    16     8     9    1
    17     8    23    1
    18     8    38    1
    19     9    10   am
    20     9    39    1
    21    10    11    2
    22    10    12    1
    23    12    13    2
    24    12    14   am
    25    14    15    1
    26    14    40    1
    27    15    22    1
    28    15    16    2
    29    16    17    1
    30    16    41    1
    31    17    18    1
    32    17    21    1
    33    18    19    1
    34    18    42    1
    35    18    43    1
    36    19    20    3
    37    21    22    2
    38    22    44    1
    39    23    30   ar
    40    23    24   ar
    41    24    25   ar
    42    24    45    1
    43    25    26   ar
    44    25    46    1
    45    26    27   ar
    46    26    47    1
    47    27    28    1
    48    27    30   ar
    49    28    29    1
    50    29    48    1
    51    29    49    1
    52    29    50    1
    53    30    51    1
    54    31    52    1
@<TRIPOS>SUBSTRUCTURE
     1 ZINC000746432885        1 TEMP              0 ****  ****    0 ROOT


##########                                Name:    ZINC000428266315
##########                DOCK_Rotatable_Bonds:                  10
##########                         Heavy_Atoms:                  30
##########                    Molecular_Weight:             423.438
##########                DOCK_Rotatable_Bonds:                  10
##########                       Formal_Charge:          0.00999977
##########                     HBond_Acceptors:                  10
##########                        HBond_Donors:                   0
##########                         Heavy_Atoms:                  30
##########                          Grid_Score:          -37.304958
##########                     Grid_vdw_energy:          -37.207424
##########                      Grid_es_energy:           -0.097532
##########           Internal_energy_repulsive:           13.291667

@<TRIPOS>MOLECULE
ZINC000428266315
 54 56 1 0 0
SMALL
USER_CHARGES


@<TRIPOS>ATOM
      1 C1         -9.7756   -2.3973   60.6766 C.3     1  ZINC000428266315   -0.1500
      2 C2        -10.3635   -3.1611   59.4883 C.3     1  ZINC000428266315    0.0600
      3 O3        -10.1912   -2.3926   58.2959 O.3     1  ZINC000428266315   -0.3700
      4 C4        -10.6181   -3.0608   57.1071 C.3     1  ZINC000428266315    0.1800
      5 H5        -10.1289   -4.0326   57.0409 H       1  ZINC000428266315    0.0900
      6 C6        -12.1352   -3.2551   57.1481 C.3     1  ZINC000428266315   -0.1700
      7 C7        -10.2504   -2.2304   55.9044 C.2     1  ZINC000428266315    0.1700
      8 N8        -10.0444   -2.6710   54.6995 N.2     1  ZINC000428266315   -0.3500
      9 O9         -9.7665   -1.7521   53.9582 O.3     1  ZINC000428266315    0.0800
     10 C10        -9.7689   -0.6030   54.6405 C.2     1  ZINC000428266315    0.1900
     11 C11        -9.4748    0.7685   54.0896 C.3     1  ZINC000428266315    0.1500
     12 N12        -8.3901    0.6778   53.1031 N.3     1  ZINC000428266315   -0.5300
     13 C13        -8.9245    0.6346   51.7355 C.3     1  ZINC000428266315    0.0200
     14 C14        -7.4398    1.7866   53.2622 C.3     1  ZINC000428266315    0.1400
     15 C15        -6.3001    1.6146   52.2914 C.2     1  ZINC000428266315   -0.2300
     16 C16        -5.5302    2.6049   51.7840 C.2     1  ZINC000428266315    0.0800
     17 N17        -4.6262    2.0402   50.9563 N.pl3   1  ZINC000428266315   -0.3700
     18 C18        -3.5948    2.7484   50.1942 C.3     1  ZINC000428266315    0.1700
     19 C19        -2.6515    1.7487   49.5762 C.ar    1  ZINC000428266315   -0.0800
     20 C20        -1.5309    1.3345   50.2713 C.ar    1  ZINC000428266315   -0.1000
     21 C21        -0.6655    0.4175   49.7045 C.ar    1  ZINC000428266315   -0.0700
     22 C22        -0.9213   -0.0856   48.4427 C.ar    1  ZINC000428266315   -0.1700
     23 C23         0.0223   -1.0849   47.8244 C.3     1  ZINC000428266315    0.5100
     24 F24         0.4893   -0.5908   46.6017 F       1  ZINC000428266315   -0.1700
     25 F25         1.1045   -1.2986   48.6849 F       1  ZINC000428266315   -0.1800
     26 F26        -0.6509   -2.2928   47.6128 F       1  ZINC000428266315   -0.1800
     27 C27        -2.0427    0.3276   47.7480 C.ar    1  ZINC000428266315   -0.0700
     28 C28        -2.9100    1.2417   48.3165 C.ar    1  ZINC000428266315   -0.0800
     29 N29        -4.8480    0.6570   50.9550 N.2     1  ZINC000428266315   -0.2900
     30 C30        -5.8474    0.4025   51.7601 C.2     1  ZINC000428266315    0.0600
     31 N31       -10.0808   -0.8964   55.8799 N.2     1  ZINC000428266315   -0.4600
     32 H32        -9.9072   -2.9833   61.5862 H       1  ZINC000428266315    0.0700
     33 H33        -8.7132   -2.2232   60.5069 H       1  ZINC000428266315    0.0600
     34 H34       -10.2879   -1.4411   60.7833 H       1  ZINC000428266315    0.0600
     35 H35        -9.8512   -4.1172   59.3817 H       1  ZINC000428266315    0.0500
     36 H36       -11.4261   -3.3351   59.6581 H       1  ZINC000428266315    0.0500
     37 H37       -12.6243   -2.2834   57.2143 H       1  ZINC000428266315    0.0700
     38 H38       -12.4608   -3.7648   56.2413 H       1  ZINC000428266315    0.0700
     39 H39       -12.4011   -3.8558   58.0179 H       1  ZINC000428266315    0.0700
     40 H40       -10.3691    1.1671   53.6106 H       1  ZINC000428266315    0.0800
     41 H41        -9.1727    1.4293   54.9021 H       1  ZINC000428266315    0.1200
     42 H42        -9.4990    1.5404   51.5411 H       1  ZINC000428266315    0.0400
     43 H43        -8.1004    0.5676   51.0253 H       1  ZINC000428266315    0.0800
     44 H44        -9.5708   -0.2361   51.6253 H       1  ZINC000428266315    0.0600
     45 H45        -7.9468    2.7310   53.0637 H       1  ZINC000428266315    0.0500
     46 H46        -7.0520    1.7895   54.2809 H       1  ZINC000428266315    0.0900
     47 H47        -5.6226    3.6587   52.0022 H       1  ZINC000428266315    0.1700
     48 H48        -4.0651    3.3385   49.4077 H       1  ZINC000428266315    0.1000
     49 H49        -3.0394    3.4082   50.8607 H       1  ZINC000428266315    0.1100
     50 H50        -1.3310    1.7276   51.2573 H       1  ZINC000428266315    0.1300
     51 H51         0.2104    0.0944   50.2474 H       1  ZINC000428266315    0.1400
     52 H52        -2.2427   -0.0657   46.7622 H       1  ZINC000428266315    0.1400
     53 H53        -3.7862    1.5645   47.7738 H       1  ZINC000428266315    0.1400
     54 H54        -6.2572   -0.5740   51.9719 H       1  ZINC000428266315    0.1800
@<TRIPOS>BOND
     1     1     2    1
     2     1    32    1
     3     1    33    1
     4     1    34    1
     5     2     3    1
     6     2    35    1
     7     2    36    1
     8     3     4    1
     9     4     5    1
    10     4     6    1
    11     4     7    1
    12     6    37    1
    13     6    38    1
    14     6    39    1
    15     7    31    1
    16     7     8    2
    17     8     9    1
    18     9    10    1
    19    10    11    1
    20    10    31    2
    21    11    12    1
    22    11    40    1
    23    11    41    1
    24    12    13    1
    25    12    14    1
    26    13    42    1
    27    13    43    1
    28    13    44    1
    29    14    15    1
    30    14    45    1
    31    14    46    1
    32    15    30    1
    33    15    16    2
    34    16    17    1
    35    16    47    1
    36    17    18    1
    37    17    29    1
    38    18    19    1
    39    18    48    1
    40    18    49    1
    41    19    28   ar
    42    19    20   ar
    43    20    21   ar
    44    20    50    1
    45    21    22   ar
    46    21    51    1
    47    22    23    1
    48    22    27   ar
    49    23    24    1
    50    23    25    1
    51    23    26    1
    52    27    28   ar
    53    27    52    1
    54    28    53    1
    55    29    30    2
    56    30    54    1
@<TRIPOS>SUBSTRUCTURE
     1 ZINC000428266315        1 TEMP              0 ****  ****    0 ROOT


##########                                Name:    ZINC000442010511
##########                DOCK_Rotatable_Bonds:                  11
##########                         Heavy_Atoms:                  31
##########                    Molecular_Weight:             422.481
##########                DOCK_Rotatable_Bonds:                  11
##########                       Formal_Charge:          -0.0200005
##########                     HBond_Acceptors:                   7
##########                        HBond_Donors:                   2
##########                         Heavy_Atoms:                  31
##########                          Grid_Score:          -37.060963
##########                     Grid_vdw_energy:          -36.273949
##########                      Grid_es_energy:           -0.787013
##########           Internal_energy_repulsive:           13.377500

@<TRIPOS>MOLECULE
ZINC000442010511
 57 59 1 0 0
SMALL
USER_CHARGES


@<TRIPOS>ATOM
      1 C1         -7.5985    0.3530   64.2440 C.3     1  ZINC000442010511   -0.1500
      2 C2         -8.3760    1.3676   63.4034 C.3     1  ZINC000442010511   -0.0500
      3 C3         -8.7121    0.7597   62.0660 C.2     1  ZINC000442010511    0.0000
      4 C4         -8.6682    1.3935   60.8805 C.2     1  ZINC000442010511   -0.2100
      5 C5         -9.0587    0.4538   59.8989 C.2     1  ZINC000442010511   -0.1900
      6 C6         -9.3177   -0.6980   60.5434 C.2     1  ZINC000442010511   -0.0300
      7 C7         -9.7682   -1.9849   59.9016 C.3     1  ZINC000442010511    0.2400
      8 H8         -8.9456   -2.7000   59.9049 H       1  ZINC000442010511    0.1400
      9 C9        -10.9480   -2.5610   60.6872 C.3     1  ZINC000442010511    0.0500
     10 O10       -11.7217   -1.4925   61.2365 O.3     1  ZINC000442010511   -0.3800
     11 C11       -12.5356   -0.8122   60.2790 C.3     1  ZINC000442010511    0.0300
     12 N12       -10.1822   -1.7233   58.5208 N.am    1  ZINC000442010511   -0.6900
     13 C13       -10.2876   -2.7418   57.6444 C.2     1  ZINC000442010511    0.5200
     14 O14       -10.0382   -3.8754   57.9987 O.2     1  ZINC000442010511   -0.5100
     15 C15       -10.7112   -2.4754   56.2374 C.2     1  ZINC000442010511    0.5100
     16 O16       -11.0327   -3.3969   55.5156 O.2     1  ZINC000442010511   -0.5000
     17 N17       -10.7367   -1.2119   55.7690 N.am    1  ZINC000442010511   -0.6300
     18 C18       -11.1334   -0.9624   54.4513 C.ar    1  ZINC000442010511    0.1200
     19 C19       -12.4436   -0.5973   54.1765 C.ar    1  ZINC000442010511   -0.1000
     20 C20       -12.8331   -0.3514   52.8735 C.ar    1  ZINC000442010511   -0.1300
     21 C21       -11.9205   -0.4680   51.8413 C.ar    1  ZINC000442010511   -0.0900
     22 C22       -10.6132   -0.8318   52.1067 C.ar    1  ZINC000442010511   -0.1700
     23 C23       -10.2123   -1.0743   53.4106 C.ar    1  ZINC000442010511    0.1000
     24 O24        -8.9275   -1.4320   53.6732 O.3     1  ZINC000442010511   -0.2600
     25 C25        -7.9329   -0.7041   53.1012 C.ar    1  ZINC000442010511    0.0800
     26 C26        -7.8659    0.6660   53.3106 C.ar    1  ZINC000442010511   -0.1300
     27 C27        -6.8535    1.4038   52.7283 C.ar    1  ZINC000442010511   -0.1100
     28 C28        -5.9078    0.7781   51.9370 C.ar    1  ZINC000442010511   -0.0800
     29 C29        -4.8048    1.5856   51.3026 C.3     1  ZINC000442010511   -0.1200
     30 C30        -5.9720   -0.5870   51.7272 C.ar    1  ZINC000442010511   -0.1100
     31 C31        -6.9793   -1.3302   52.3114 C.ar    1  ZINC000442010511   -0.1100
     32 O32        -9.1006   -0.5085   61.8552 O.3     1  ZINC000442010511   -0.1600
     33 H33        -8.2078   -0.5384   64.3929 H       1  ZINC000442010511    0.0600
     34 H34        -6.6783    0.0818   63.7267 H       1  ZINC000442010511    0.0600
     35 H35        -7.3554    0.7927   65.2113 H       1  ZINC000442010511    0.0700
     36 H36        -9.2963    1.6389   63.9207 H       1  ZINC000442010511    0.0900
     37 H37        -7.7668    2.2591   63.2545 H       1  ZINC000442010511    0.0800
     38 H38        -8.3890    2.4230   60.7109 H       1  ZINC000442010511    0.1500
     39 H39        -9.1347    0.6277   58.8357 H       1  ZINC000442010511    0.1500
     40 H40       -11.5721   -3.1564   60.0209 H       1  ZINC000442010511    0.0700
     41 H41       -10.5740   -3.1910   61.4943 H       1  ZINC000442010511    0.0700
     42 H42       -13.0910   -0.0159   60.7745 H       1  ZINC000442010511    0.0900
     43 H43       -11.9020   -0.3844   59.5021 H       1  ZINC000442010511    0.0400
     44 H44       -13.2348   -1.5177   59.8300 H       1  ZINC000442010511    0.0400
     45 H45       -10.3802   -0.8170   58.2373 H       1  ZINC000442010511    0.4200
     46 H46       -10.4798   -0.4756   56.3458 H       1  ZINC000442010511    0.4300
     47 H47       -13.1588   -0.5056   54.9805 H       1  ZINC000442010511    0.1600
     48 H48       -13.8533   -0.0675   52.6608 H       1  ZINC000442010511    0.1300
     49 H49       -12.2298   -0.2748   50.8249 H       1  ZINC000442010511    0.1300
     50 H50        -9.9033   -0.9227   51.2980 H       1  ZINC000442010511    0.1300
     51 H51        -8.6047    1.1553   53.9280 H       1  ZINC000442010511    0.1300
     52 H52        -6.8008    2.4702   52.8909 H       1  ZINC000442010511    0.1300
     53 H53        -3.9493    1.6249   51.9770 H       1  ZINC000442010511    0.0700
     54 H54        -4.5062    1.1186   50.3641 H       1  ZINC000442010511    0.0700
     55 H55        -5.1608    2.5972   51.1080 H       1  ZINC000442010511    0.0700
     56 H56        -5.2321   -1.0732   51.1086 H       1  ZINC000442010511    0.1300
     57 H57        -7.0289   -2.3966   52.1473 H       1  ZINC000442010511    0.1300
@<TRIPOS>BOND
     1     1     2    1
     2     1    33    1
     3     1    34    1
     4     1    35    1
     5     2     3    1
     6     2    36    1
     7     2    37    1
     8     3    32    1
     9     3     4    2
    10     4     5    1
    11     4    38    1
    12     5     6    2
    13     5    39    1
    14     6     7    1
    15     6    32    1
    16     7     8    1
    17     7     9    1
    18     7    12    1
    19     9    10    1
    20     9    40    1
    21     9    41    1
    22    10    11    1
    23    11    42    1
    24    11    43    1
    25    11    44    1
    26    12    13   am
    27    12    45    1
    28    13    14    2
    29    13    15    1
    30    15    16    2
    31    15    17   am
    32    17    18    1
    33    17    46    1
    34    18    23   ar
    35    18    19   ar
    36    19    20   ar
    37    19    47    1
    38    20    21   ar
    39    20    48    1
    40    21    22   ar
    41    21    49    1
    42    22    23   ar
    43    22    50    1
    44    23    24    1
    45    24    25    1
    46    25    31   ar
    47    25    26   ar
    48    26    27   ar
    49    26    51    1
    50    27    28   ar
    51    27    52    1
    52    28    29    1
    53    28    30   ar
    54    29    53    1
    55    29    54    1
    56    29    55    1
    57    30    31   ar
    58    30    56    1
    59    31    57    1
@<TRIPOS>SUBSTRUCTURE
     1 ZINC000442010511        1 TEMP              0 ****  ****    0 ROOT


##########                                Name:    ZINC000110375116
##########                DOCK_Rotatable_Bonds:                  10
##########                         Heavy_Atoms:                  27
##########                    Molecular_Weight:             396.511
##########                DOCK_Rotatable_Bonds:                  10
##########                       Formal_Charge:        -2.23517e-07
##########                     HBond_Acceptors:                   9
##########                        HBond_Donors:                   0
##########                         Heavy_Atoms:                  27
##########                          Grid_Score:          -37.021950
##########                     Grid_vdw_energy:          -36.970955
##########                      Grid_es_energy:           -0.050994
##########           Internal_energy_repulsive:           32.194309

@<TRIPOS>MOLECULE
ZINC000110375116
 55 56 1 0 0
SMALL
USER_CHARGES


@<TRIPOS>ATOM
      1 C1         -1.4437   -1.2264   47.1036 C.3     1  ZINC000110375116   -0.1700
      2 C2         -0.8580    0.1655   47.3496 C.3     1  ZINC000110375116    0.1000
      3 N3         -1.9470    1.1288   47.5293 N.am    1  ZINC000110375116   -0.6200
      4 C4         -2.8022    1.4875   46.3952 C.3     1  ZINC000110375116    0.1100
      5 C5         -2.4317    2.8869   45.8997 C.3     1  ZINC000110375116   -0.1700
      6 C6         -2.1622    1.6850   48.7379 C.2     1  ZINC000110375116    0.5100
      7 O7         -1.4533    1.3892   49.6765 O.2     1  ZINC000110375116   -0.5300
      8 C8         -3.2837    2.6746   48.9231 C.3     1  ZINC000110375116   -0.1400
      9 C9         -3.7631    2.6360   50.3755 C.3     1  ZINC000110375116   -0.0900
     10 C10        -4.6496    1.4071   50.5874 C.3     1  ZINC000110375116   -0.1400
     11 C11        -5.3729    1.5305   51.9037 C.2     1  ZINC000110375116    0.5200
     12 O12        -5.0662    2.4065   52.6845 O.2     1  ZINC000110375116   -0.5300
     13 N13        -6.3607    0.6674   52.2134 N.am    1  ZINC000110375116   -0.6200
     14 C14        -7.0776    0.7784   53.4915 C.3     1  ZINC000110375116    0.0900
     15 C15        -8.5797    0.8908   53.2027 C.3     1  ZINC000110375116    0.1000
     16 N16        -8.9594   -0.1779   52.2681 N.am    1  ZINC000110375116   -1.0000
     17 S17       -10.1738   -1.2377   52.6482 S.o2    1  ZINC000110375116    2.7000
     18 O18       -10.3897   -2.0326   51.4902 O.2     1  ZINC000110375116   -0.9400
     19 O19        -9.8452   -1.7861   53.9172 O.2     1  ZINC000110375116   -0.9500
     20 C20       -11.6403   -0.2890   52.8808 C.ar    1  ZINC000110375116   -0.7400
     21 C21       -11.9951    0.6903   51.9660 C.ar    1  ZINC000110375116    0.0200
     22 C22       -13.1580    1.4119   52.1894 C.ar    1  ZINC000110375116   -0.1900
     23 C23       -13.9192    1.1327   53.3084 C.ar    1  ZINC000110375116    0.1500
     24 N24       -13.5508    0.1935   54.1577 N.ar    1  ZINC000110375116   -0.4900
     25 C25       -12.4545   -0.5158   53.9746 C.ar    1  ZINC000110375116    0.2000
     26 C26        -8.2425   -0.2890   50.9900 C.3     1  ZINC000110375116    0.1000
     27 C27        -6.7442   -0.3979   51.2764 C.3     1  ZINC000110375116    0.1000
     28 H28        -0.6334   -1.9431   46.9699 H       1  ZINC000110375116    0.0700
     29 H29        -2.0519   -1.5209   47.9588 H       1  ZINC000110375116    0.0600
     30 H30        -2.0630   -1.2067   46.2069 H       1  ZINC000110375116    0.0600
     31 H31        -0.2387    0.1458   48.2464 H       1  ZINC000110375116    0.0800
     32 H32        -0.2497    0.4601   46.4944 H       1  ZINC000110375116    0.0800
     33 H33        -2.6588    0.7672   45.5898 H       1  ZINC000110375116    0.0800
     34 H34        -3.8458    1.4778   46.7097 H       1  ZINC000110375116    0.0800
     35 H35        -3.0680    3.1538   45.0559 H       1  ZINC000110375116    0.0700
     36 H36        -2.5752    3.6072   46.7050 H       1  ZINC000110375116    0.0500
     37 H37        -1.3882    2.8965   45.5851 H       1  ZINC000110375116    0.0600
     38 H38        -2.9272    3.6766   48.6846 H       1  ZINC000110375116    0.0900
     39 H39        -4.1098    2.4156   48.2608 H       1  ZINC000110375116    0.0900
     40 H40        -2.9017    2.5818   51.0411 H       1  ZINC000110375116    0.0800
     41 H41        -4.3346    3.5382   50.5935 H       1  ZINC000110375116    0.0800
     42 H42        -5.3767    1.3396   49.7783 H       1  ZINC000110375116    0.1000
     43 H43        -4.0307    0.5098   50.5957 H       1  ZINC000110375116    0.1000
     44 H44        -6.8867   -0.1080   54.0963 H       1  ZINC000110375116    0.0800
     45 H45        -6.7400    1.6675   54.0242 H       1  ZINC000110375116    0.1000
     46 H46        -9.1399    0.7810   54.1311 H       1  ZINC000110375116    0.1100
     47 H47        -8.7946    1.8613   52.7555 H       1  ZINC000110375116    0.0800
     48 H48       -11.3802    0.8869   51.1002 H       1  ZINC000110375116    0.1500
     49 H49       -13.4648    2.1825   51.4977 H       1  ZINC000110375116    0.1500
     50 H50       -14.8261    1.6905   53.4898 H       1  ZINC000110375116    0.1700
     51 H51       -12.1849   -1.2768   54.6918 H       1  ZINC000110375116    0.1700
     52 H52        -8.5801   -1.1780   50.4572 H       1  ZINC000110375116    0.1100
     53 H53        -8.4335    0.5975   50.3853 H       1  ZINC000110375116    0.0800
     54 H54        -6.1852   -0.2879   50.3471 H       1  ZINC000110375116    0.1100
     55 H55        -6.5269   -1.3675   51.7244 H       1  ZINC000110375116    0.0800
@<TRIPOS>BOND
     1     1     2    1
     2     1    28    1
     3     1    29    1
     4     1    30    1
     5     2     3    1
     6     2    31    1
     7     2    32    1
     8     3     4    1
     9     3     6   am
    10     4     5    1
    11     4    33    1
    12     4    34    1
    13     5    35    1
    14     5    36    1
    15     5    37    1
    16     6     7    2
    17     6     8    1
    18     8     9    1
    19     8    38    1
    20     8    39    1
    21     9    10    1
    22     9    40    1
    23     9    41    1
    24    10    11    1
    25    10    42    1
    26    10    43    1
    27    11    12    2
    28    11    13   am
    29    13    27    1
    30    13    14    1
    31    14    15    1
    32    14    44    1
    33    14    45    1
    34    15    16    1
    35    15    46    1
    36    15    47    1
    37    16    17   am
    38    16    26    1
    39    17    18    2
    40    17    19    2
    41    17    20    1
    42    20    25   ar
    43    20    21   ar
    44    21    22   ar
    45    21    48    1
    46    22    23   ar
    47    22    49    1
    48    23    24   ar
    49    23    50    1
    50    24    25   ar
    51    25    51    1
    52    26    27    1
    53    26    52    1
    54    26    53    1
    55    27    54    1
    56    27    55    1
@<TRIPOS>SUBSTRUCTURE
     1 ZINC000110375116        1 TEMP              0 ****  ****    0 ROOT


##########                                Name:    ZINC000150894060
##########                DOCK_Rotatable_Bonds:                  10
##########                         Heavy_Atoms:                  27
##########                    Molecular_Weight:              366.42
##########                DOCK_Rotatable_Bonds:                  10
##########                       Formal_Charge:        -6.70552e-07
##########                     HBond_Acceptors:                   7
##########                        HBond_Donors:                   2
##########                         Heavy_Atoms:                  27
##########                          Grid_Score:          -37.013824
##########                     Grid_vdw_energy:          -35.068775
##########                      Grid_es_energy:           -1.945051
##########           Internal_energy_repulsive:           11.513813

@<TRIPOS>MOLECULE
ZINC000150894060
 49 51 1 0 0
SMALL
USER_CHARGES


@<TRIPOS>ATOM
      1 C1         -0.9333   -0.0239   45.7570 C.3     1  ZINC000150894060   -0.1000
      2 C2         -0.5207   -0.4214   47.1509 C.2     1  ZINC000150894060   -0.0800
      3 C3         -1.0945   -0.0095   48.3194 C.2     1  ZINC000150894060   -0.1000
      4 C4         -2.2321    0.9076   48.4444 C.2     1  ZINC000150894060    0.6100
      5 O5         -2.7455    1.3799   47.4472 O.2     1  ZINC000150894060   -0.5100
      6 N6         -2.7091    1.2273   49.6637 N.am    1  ZINC000150894060   -0.7200
      7 C7         -3.8467    2.1419   49.7886 C.3     1  ZINC000150894060    0.1200
      8 C8         -4.5211    1.9346   51.1462 C.3     1  ZINC000150894060   -0.1500
      9 C9         -5.3647    0.6588   51.1070 C.3     1  ZINC000150894060    0.1200
     10 N10        -6.1836    0.5774   52.3190 N.am    1  ZINC000150894060   -0.7300
     11 C11        -7.3934   -0.0150   52.2763 C.2     1  ZINC000150894060    0.5600
     12 O12        -7.8044   -0.4832   51.2326 O.2     1  ZINC000150894060   -0.5300
     13 C13        -8.2205   -0.0956   53.4991 C.ar    1  ZINC000150894060   -0.1300
     14 C14        -8.9586   -1.2486   53.7713 C.ar    1  ZINC000150894060   -0.0900
     15 C15        -9.7279   -1.3176   54.9144 C.ar    1  ZINC000150894060   -0.0900
     16 C16        -9.7694   -0.2469   55.7898 C.ar    1  ZINC000150894060   -0.0800
     17 C17       -10.6124   -0.3291   57.0361 C.3     1  ZINC000150894060    0.1700
     18 N18       -10.0733   -1.3631   57.9230 N.pl3   1  ZINC000150894060   -0.3700
     19 C19       -10.4771   -2.6495   57.9801 C.2     1  ZINC000150894060    0.0500
     20 C20        -9.7335   -3.2737   58.9227 C.2     1  ZINC000150894060   -0.2700
     21 C21        -8.8448   -2.3366   59.4599 C.2     1  ZINC000150894060    0.0400
     22 N22        -9.0434   -1.1925   58.8571 N.2     1  ZINC000150894060   -0.2900
     23 C23        -9.0398    0.8987   55.5260 C.ar    1  ZINC000150894060   -0.1100
     24 C24        -8.2622    0.9787   54.3893 C.ar    1  ZINC000150894060   -0.0600
     25 O25        -0.4315   -0.5939   49.3387 O.3     1  ZINC000150894060   -0.1700
     26 C26         0.5473   -1.3653   48.8482 C.2     1  ZINC000150894060    0.0000
     27 C27         0.5241   -1.2917   47.4991 C.2     1  ZINC000150894060   -0.2300
     28 H28        -1.6831   -0.7231   45.3867 H       1  ZINC000150894060    0.0800
     29 H29        -1.3524    0.9822   45.7751 H       1  ZINC000150894060    0.0900
     30 H30        -0.0631   -0.0433   45.1010 H       1  ZINC000150894060    0.0700
     31 H31        -2.2992    0.8517   50.4586 H       1  ZINC000150894060    0.4100
     32 H32        -3.4958    3.1709   49.7105 H       1  ZINC000150894060    0.0800
     33 H33        -4.5635    1.9411   48.9923 H       1  ZINC000150894060    0.0800
     34 H34        -3.7593    1.8429   51.9202 H       1  ZINC000150894060    0.0800
     35 H35        -5.1627    2.7877   51.3672 H       1  ZINC000150894060    0.0800
     36 H36        -6.0130    0.6786   50.2310 H       1  ZINC000150894060    0.0800
     37 H37        -4.7079   -0.2095   51.0533 H       1  ZINC000150894060    0.0800
     38 H38        -5.8551    0.9499   53.1522 H       1  ZINC000150894060    0.4000
     39 H39        -8.9277   -2.0848   53.0885 H       1  ZINC000150894060    0.1300
     40 H40       -10.2995   -2.2092   55.1261 H       1  ZINC000150894060    0.1300
     41 H41       -10.5980    0.6328   57.5487 H       1  ZINC000150894060    0.1100
     42 H42       -11.6377   -0.5812   56.7653 H       1  ZINC000150894060    0.1000
     43 H43       -11.2547   -3.0999   57.3811 H       1  ZINC000150894060    0.1700
     44 H44        -9.8125   -4.3118   59.2098 H       1  ZINC000150894060    0.1500
     45 H45        -8.1168   -2.5262   60.2349 H       1  ZINC000150894060    0.1800
     46 H46        -9.0762    1.7309   56.2135 H       1  ZINC000150894060    0.1300
     47 H47        -7.6929    1.8734   54.1847 H       1  ZINC000150894060    0.1400
     48 H48         1.2385   -1.9528   49.4343 H       1  ZINC000150894060    0.2100
     49 H49         1.1887   -1.8013   46.8173 H       1  ZINC000150894060    0.1600
@<TRIPOS>BOND
     1     1     2    1
     2     1    28    1
     3     1    29    1
     4     1    30    1
     5     2    27    1
     6     2     3    2
     7     3     4    1
     8     3    25    1
     9     4     5    2
    10     4     6   am
    11     6     7    1
    12     6    31    1
    13     7     8    1
    14     7    32    1
    15     7    33    1
    16     8     9    1
    17     8    34    1
    18     8    35    1
    19     9    10    1
    20     9    36    1
    21     9    37    1
    22    10    11   am
    23    10    38    1
    24    11    12    2
    25    11    13    1
    26    13    24   ar
    27    13    14   ar
    28    14    15   ar
    29    14    39    1
    30    15    16   ar
    31    15    40    1
    32    16    17    1
    33    16    23   ar
    34    17    18    1
    35    17    41    1
    36    17    42    1
    37    18    22    1
    38    18    19    1
    39    19    20    2
    40    19    43    1
    41    20    21    1
    42    20    44    1
    43    21    22    2
    44    21    45    1
    45    23    24   ar
    46    23    46    1
    47    24    47    1
    48    25    26    1
    49    26    27    2
    50    26    48    1
    51    27    49    1
@<TRIPOS>SUBSTRUCTURE
     1 ZINC000150894060        1 TEMP              0 ****  ****    0 ROOT


##########                                Name:     oleObject15.pdb
##########                DOCK_Rotatable_Bonds:                   9
##########                         Heavy_Atoms:                  29
##########                    Molecular_Weight:             395.545
##########                DOCK_Rotatable_Bonds:                   9
##########                       Formal_Charge:         0.000700183
##########                     HBond_Acceptors:                   5
##########                        HBond_Donors:                   1
##########                         Heavy_Atoms:                  29
##########                          Grid_Score:          -36.921089
##########                     Grid_vdw_energy:          -36.309555
##########                      Grid_es_energy:           -0.611534
##########           Internal_energy_repulsive:           15.313876

@<TRIPOS>MOLECULE
oleObject15.pdb
 62 64 1 0 0
SMALL
NO_CHARGES


@<TRIPOS>ATOM
      1 O          -4.0298    0.9935   50.5789 O.3     1  UNL        -0.3745
      2 C          -5.1639    1.2844   51.4266 C.3     1  UNL         0.0600
      3 C          -6.0077   -0.0024   51.5796 C.3     1  UNL         0.0217
      4 N          -7.4075    0.2259   52.0083 N.4     1  UNL        -0.3010
      5 C          -8.3532   -0.8494   51.6306 C.3     1  UNL        -0.0010
      6 C          -9.8101   -0.4854   51.9904 C.3     1  UNL        -0.0289
      7 C          -9.9813   -0.0900   53.4769 C.3     1  UNL         0.0382
      8 C          -8.9232    0.9719   53.8694 C.3     1  UNL        -0.0289
      9 C          -7.4865    0.5961   53.4372 C.3     1  UNL        -0.0010
     10 C          -9.9467   -1.3284   54.4067 C.2     1  UNL         0.2156
     11 O          -9.6895   -2.4421   53.9869 O.2     1  UNL        -0.2774
     12 N         -10.1683   -1.1753   55.7693 N.am    1  UNL        -0.3025
     13 C         -10.1751   -2.2262   56.8044 C.3     1  UNL         0.0900
     14 C          -9.5043   -1.7857   58.1042 C.ar    1  UNL        -0.0217
     15 C          -9.7447   -2.4655   59.3153 C.ar    1  UNL        -0.0568
     16 C          -9.1293   -2.0395   60.5038 C.ar    1  UNL        -0.0619
     17 C          -8.2661   -0.9328   60.4908 C.ar    1  UNL        -0.0622
     18 C          -8.0168   -0.2543   59.2876 C.ar    1  UNL        -0.0619
     19 C          -8.6321   -0.6806   58.0993 C.ar    1  UNL        -0.0568
     20 C         -11.5851   -2.7440   57.0730 C.ar    1  UNL         0.0652
     21 C         -12.4192   -2.1533   58.0448 C.ar    1  UNL        -0.0383
     22 C         -13.7038   -2.6807   58.2521 C.ar    1  UNL        -0.0588
     23 C         -14.1096   -3.7813   57.4816 C.ar    1  UNL        -0.0438
     24 C         -13.2145   -4.3097   56.5357 C.ar    1  UNL         0.0272
     25 N         -11.9804   -3.8047   56.3354 N.ar    1  UNL        -0.2590
     26 C          -3.0455    2.0234   50.3230 C.3     1  UNL         0.0599
     27 C          -1.8998    1.4437   49.4560 C.3     1  UNL        -0.0364
     28 C          -3.8040    3.1149   49.5346 C.3     1  UNL        -0.0364
     29 C          -2.5197    2.6002   51.6613 C.3     1  UNL        -0.0364
     30 H          -5.7888    2.0638   50.9741 H       1  UNL         0.0581
     31 H          -4.8459    1.6343   52.4147 H       1  UNL         0.0581
     32 H          -5.5059   -0.6426   52.3164 H       1  UNL         0.0455
     33 H          -6.0015   -0.5400   50.6229 H       1  UNL         0.0455
     34 H          -8.0750   -1.7830   52.1362 H       1  UNL         0.0431
     35 H          -8.3154   -1.0309   50.5501 H       1  UNL         0.0431
     36 H         -10.4712   -1.3230   51.7400 H       1  UNL         0.0288
     37 H         -10.1223    0.3583   51.3613 H       1  UNL         0.0288
     38 H         -10.9522    0.4027   53.5739 H       1  UNL         0.0402
     39 H          -8.9526    1.1506   54.9517 H       1  UNL         0.0288
     40 H          -9.1870    1.9227   53.3882 H       1  UNL         0.0288
     41 H          -7.1265   -0.2370   54.0536 H       1  UNL         0.0431
     42 H          -6.8307    1.4540   53.6339 H       1  UNL         0.0431
     43 H         -10.2430   -0.2198   56.0940 H       1  UNL         0.1504
     44 H          -9.6067   -3.0726   56.3981 H       1  UNL         0.0624
     45 H         -10.4164   -3.3186   59.3406 H       1  UNL         0.0626
     46 H          -9.3235   -2.5657   61.4340 H       1  UNL         0.0623
     47 H          -7.7905   -0.6030   61.4101 H       1  UNL         0.0623
     48 H          -7.3470    0.6009   59.2754 H       1  UNL         0.0623
     49 H          -8.4315   -0.1492   57.1731 H       1  UNL         0.0626
     50 H         -12.0792   -1.3030   58.6281 H       1  UNL         0.0643
     51 H         -14.3687   -2.2467   58.9933 H       1  UNL         0.0624
     52 H         -15.0957   -4.2169   57.6134 H       1  UNL         0.0639
     53 H         -13.4935   -5.1639   55.9198 H       1  UNL         0.0840
     54 H          -2.3011    0.9228   48.5772 H       1  UNL         0.0260
     55 H          -1.2829    0.7357   50.0224 H       1  UNL         0.0260
     56 H          -1.2386    2.2445   49.1017 H       1  UNL         0.0260
     57 H          -4.2104    2.7096   48.5989 H       1  UNL         0.0260
     58 H          -3.1407    3.9518   49.2818 H       1  UNL         0.0260
     59 H          -4.6413    3.5115   50.1231 H       1  UNL         0.0260
     60 H          -1.9101    1.8669   52.2036 H       1  UNL         0.0260
     61 H          -3.3518    2.9025   52.3100 H       1  UNL         0.0260
     62 H          -1.8922    3.4826   51.4830 H       1  UNL         0.0260
@<TRIPOS>BOND
     1     1     2    1
     2     1    26    1
     3     2     3    1
     4     2    30    1
     5     2    31    1
     6     3     4    1
     7     3    32    1
     8     3    33    1
     9     4     5    1
    10     4     9    1
    11     5     6    1
    12     5    34    1
    13     5    35    1
    14     6     7    1
    15     6    36    1
    16     6    37    1
    17     7     8    1
    18     7    10    1
    19     7    38    1
    20     8     9    1
    21     8    39    1
    22     8    40    1
    23     9    41    1
    24     9    42    1
    25    10    11    2
    26    10    12   am
    27    12    13    1
    28    12    43    1
    29    13    14    1
    30    13    20    1
    31    13    44    1
    32    14    15   ar
    33    14    19   ar
    34    15    16   ar
    35    15    45    1
    36    16    17   ar
    37    16    46    1
    38    17    18   ar
    39    17    47    1
    40    18    19   ar
    41    18    48    1
    42    19    49    1
    43    20    21   ar
    44    20    25   ar
    45    21    22   ar
    46    21    50    1
    47    22    23   ar
    48    22    51    1
    49    23    24   ar
    50    23    52    1
    51    24    25   ar
    52    24    53    1
    53    26    27    1
    54    26    28    1
    55    26    29    1
    56    27    54    1
    57    27    55    1
    58    27    56    1
    59    28    57    1
    60    28    58    1
    61    28    59    1
    62    29    60    1
    63    29    61    1
    64    29    62    1
@<TRIPOS>SUBSTRUCTURE
     1 UNL         1 TEMP              0 ****  ****    0 ROOT


##########                                Name:    ZINC000263872566
##########                DOCK_Rotatable_Bonds:                   9
##########                         Heavy_Atoms:                  26
##########                    Molecular_Weight:             362.469
##########                DOCK_Rotatable_Bonds:                   9
##########                       Formal_Charge:           0.0300001
##########                     HBond_Acceptors:                   6
##########                        HBond_Donors:                   2
##########                         Heavy_Atoms:                  26
##########                          Grid_Score:          -36.873085
##########                     Grid_vdw_energy:          -35.763523
##########                      Grid_es_energy:           -1.109563
##########           Internal_energy_repulsive:           22.736649

@<TRIPOS>MOLECULE
ZINC000263872566
 56 57 1 0 0
SMALL
USER_CHARGES


@<TRIPOS>ATOM
      1 C1          0.5607   -1.8843   47.8951 C.3     1  ZINC000263872566   -0.1800
      2 C2          0.7869   -0.3755   47.7797 C.3     1  ZINC000263872566    0.1400
      3 H3          1.6865   -0.0998   48.3301 H       1  ZINC000263872566    0.0700
      4 O4          0.9428   -0.0211   46.4042 O.3     1  ZINC000263872566   -0.5600
      5 C5         -0.3983    0.3557   48.3557 C.ar    1  ZINC000263872566   -0.0800
      6 C6         -1.5077    0.6018   47.5686 C.ar    1  ZINC000263872566   -0.0900
      7 C7         -2.5949    1.2725   48.0967 C.ar    1  ZINC000263872566   -0.1000
      8 C8         -2.5729    1.6967   49.4122 C.ar    1  ZINC000263872566   -0.1100
      9 C9         -3.7580    2.4283   49.9880 C.3     1  ZINC000263872566    0.1800
     10 N10        -4.7048    1.4603   50.5471 N.am    1  ZINC000263872566   -0.7400
     11 C11        -5.3924    1.7600   51.6669 C.2     1  ZINC000263872566    0.7100
     12 O12        -5.2268    2.8336   52.2131 O.2     1  ZINC000263872566   -0.5900
     13 N13        -6.2636    0.8694   52.1814 N.am    1  ZINC000263872566   -0.6300
     14 C14        -7.0248    1.1840   53.3981 C.3     1  ZINC000263872566    0.1100
     15 C15        -8.5159    0.9774   53.1139 C.3     1  ZINC000263872566   -0.1200
     16 C16        -8.7382   -0.4403   52.5823 C.3     1  ZINC000263872566   -0.0800
     17 C17       -10.2084   -0.6585   52.3338 C.2     1  ZINC000263872566    0.4700
     18 O18       -10.5768   -1.1827   51.3093 O.2     1  ZINC000263872566   -0.5000
     19 O19       -11.1089   -0.2706   53.2506 O.3     1  ZINC000263872566   -0.3500
     20 C20       -12.1987    0.5709   52.7892 C.3     1  ZINC000263872566    0.1200
     21 C21       -11.6594    1.6086   51.8027 C.3     1  ZINC000263872566   -0.1800
     22 C22       -13.2520   -0.2943   52.0943 C.3     1  ZINC000263872566   -0.1400
     23 C23       -12.8330    1.2849   53.9845 C.3     1  ZINC000263872566   -0.1800
     24 C24        -7.9672   -0.6227   51.2730 C.3     1  ZINC000263872566   -0.1300
     25 C25        -6.4744   -0.4320   51.5328 C.3     1  ZINC000263872566    0.1300
     26 C26        -1.4640    1.4493   50.1997 C.ar    1  ZINC000263872566   -0.1000
     27 C27        -0.3784    0.7753   49.6726 C.ar    1  ZINC000263872566   -0.1100
     28 H28        -0.3388   -2.1599   47.3447 H       1  ZINC000263872566    0.0700
     29 H29         1.4180   -2.4131   47.4786 H       1  ZINC000263872566    0.0600
     30 H30         0.4418   -2.1546   48.9443 H       1  ZINC000263872566    0.0700
     31 H31         0.1961   -0.2761   45.8451 H       1  ZINC000263872566    0.3800
     32 H32        -1.5250    0.2704   46.5408 H       1  ZINC000263872566    0.1300
     33 H33        -3.4614    1.4654   47.4816 H       1  ZINC000263872566    0.1300
     34 H34        -3.4210    3.1032   50.7749 H       1  ZINC000263872566    0.0800
     35 H35        -4.2474    3.0027   49.2016 H       1  ZINC000263872566    0.0800
     36 H36        -4.8369    0.6037   50.1115 H       1  ZINC000263872566    0.4000
     37 H37        -6.7117    0.5228   54.2061 H       1  ZINC000263872566    0.0800
     38 H38        -6.8472    2.2212   53.6823 H       1  ZINC000263872566    0.0800
     39 H39        -9.0840    1.1143   54.0341 H       1  ZINC000263872566    0.0900
     40 H40        -8.8481    1.7013   52.3698 H       1  ZINC000263872566    0.0800
     41 H41        -8.3828   -1.1633   53.3166 H       1  ZINC000263872566    0.1100
     42 H42       -11.2075    1.0998   50.9511 H       1  ZINC000263872566    0.0600
     43 H43       -12.4775    2.2402   51.4564 H       1  ZINC000263872566    0.0700
     44 H44       -10.9090    2.2249   52.2978 H       1  ZINC000263872566    0.0800
     45 H45       -13.6362   -1.0336   52.7970 H       1  ZINC000263872566    0.0700
     46 H46       -14.0701    0.3374   51.7480 H       1  ZINC000263872566    0.0800
     47 H47       -12.8001   -0.8030   51.2427 H       1  ZINC000263872566    0.0700
     48 H48       -12.0826    1.9013   54.4796 H       1  ZINC000263872566    0.0800
     49 H49       -13.6510    1.9165   53.6383 H       1  ZINC000263872566    0.0700
     50 H50       -13.2172    0.5457   54.6873 H       1  ZINC000263872566    0.0600
     51 H51        -8.1447   -1.6250   50.8829 H       1  ZINC000263872566    0.0900
     52 H52        -8.3046    0.1161   50.5462 H       1  ZINC000263872566    0.0700
     53 H53        -5.9321   -0.4628   50.5878 H       1  ZINC000263872566    0.1000
     54 H54        -6.1137   -1.2237   52.1896 H       1  ZINC000263872566    0.0700
     55 H55        -1.4469    1.7805   51.2276 H       1  ZINC000263872566    0.1300
     56 H56         0.4879    0.5821   50.2878 H       1  ZINC000263872566    0.1300
@<TRIPOS>BOND
     1     1     2    1
     2     1    28    1
     3     1    29    1
     4     1    30    1
     5     2     3    1
     6     2     4    1
     7     2     5    1
     8     4    31    1
     9     5    27   ar
    10     5     6   ar
    11     6     7   ar
    12     6    32    1
    13     7     8   ar
    14     7    33    1
    15     8     9    1
    16     8    26   ar
    17     9    10    1
    18     9    34    1
    19     9    35    1
    20    10    11   am
    21    10    36    1
    22    11    12    2
    23    11    13   am
    24    13    25    1
    25    13    14    1
    26    14    15    1
    27    14    37    1
    28    14    38    1
    29    15    16    1
    30    15    39    1
    31    15    40    1
    32    16    17    1
    33    16    24    1
    34    16    41    1
    35    17    18    2
    36    17    19    1
    37    19    20    1
    38    20    21    1
    39    20    22    1
    40    20    23    1
    41    21    42    1
    42    21    43    1
    43    21    44    1
    44    22    45    1
    45    22    46    1
    46    22    47    1
    47    23    48    1
    48    23    49    1
    49    23    50    1
    50    24    25    1
    51    24    51    1
    52    24    52    1
    53    25    53    1
    54    25    54    1
    55    26    27   ar
    56    26    55    1
    57    27    56    1
@<TRIPOS>SUBSTRUCTURE
     1 ZINC000263872566        1 TEMP              0 ****  ****    0 ROOT


##########                                Name:     oleObject42.pdb
##########                DOCK_Rotatable_Bonds:                   9
##########                         Heavy_Atoms:                  36
##########                    Molecular_Weight:             527.493
##########                DOCK_Rotatable_Bonds:                   9
##########                       Formal_Charge:         9.99384e-05
##########                     HBond_Acceptors:                   8
##########                        HBond_Donors:                   0
##########                         Heavy_Atoms:                  36
##########                          Grid_Score:          -36.809093
##########                     Grid_vdw_energy:          -36.440701
##########                      Grid_es_energy:           -0.368394
##########           Internal_energy_repulsive:           49.517464

@<TRIPOS>MOLECULE
oleObject42.pdb
 68 71 1 0 0
SMALL
NO_CHARGES


@<TRIPOS>ATOM
      1 C           3.4743    4.2350   49.3237 C.ar    1  UNL        -0.0435
      2 C           3.6818    3.3451   48.2599 C.ar    1  UNL        -0.0559
      3 C           2.5781    2.9144   47.4998 C.ar    1  UNL        -0.0272
      4 C           1.2916    3.4010   47.8436 C.ar    1  UNL         0.0699
      5 N           1.1055    4.2598   48.8731 N.ar    1  UNL        -0.2586
      6 C           2.1672    4.6663   49.5938 C.ar    1  UNL         0.0272
      7 C           0.0341    2.9815   47.0631 C.3     1  UNL         0.1101
      8 C          -0.3096    1.4875   47.2203 C.ar    1  UNL         0.0699
      9 C          -1.3228    0.8775   46.4384 C.ar    1  UNL        -0.0272
     10 C          -1.5939   -0.4891   46.6399 C.ar    1  UNL        -0.0559
     11 C          -0.8592   -1.1973   47.6017 C.ar    1  UNL        -0.0435
     12 C           0.1232   -0.5144   48.3335 C.ar    1  UNL         0.0272
     13 N           0.3887    0.7922   48.1489 N.ar    1  UNL        -0.2586
     14 C          -2.1204    1.6510   45.3940 C.3     1  UNL        -0.0379
     15 N          -1.1154    3.9023   47.2842 N.am    1  UNL        -0.2902
     16 C          -1.9122    3.8604   48.4290 C.2     1  UNL         0.2180
     17 O          -2.6647    4.7849   48.6889 O.2     1  UNL        -0.2772
     18 C          -1.5576    2.7969   49.4971 C.3     1  UNL         0.0385
     19 C          -2.5442    1.6051   49.4547 C.3     1  UNL        -0.0289
     20 C          -3.9174    1.9609   50.0635 C.3     1  UNL        -0.0010
     21 N          -3.7804    2.4797   51.4416 N.4     1  UNL        -0.3010
     22 C          -2.8812    3.6493   51.5563 C.3     1  UNL        -0.0010
     23 C          -1.4903    3.3819   50.9324 C.3     1  UNL        -0.0289
     24 C          -5.0667    2.6368   52.1562 C.3     1  UNL         0.0222
     25 C          -5.9615    1.3776   52.1249 C.3     1  UNL         0.0661
     26 O          -7.1694    1.6779   52.8414 O.3     1  UNL        -0.3432
     27 C          -7.8940    0.6461   53.3853 C.ar    1  UNL         0.0937
     28 C          -8.5369   -0.2627   52.5280 C.ar    1  UNL        -0.0288
     29 C          -9.2858   -1.3244   53.0622 C.ar    1  UNL        -0.0408
     30 C          -9.3935   -1.4741   54.4549 C.ar    1  UNL         0.0422
     31 C          -8.7562   -0.5640   55.3148 C.ar    1  UNL        -0.0221
     32 C          -8.0064    0.4984   54.7825 C.ar    1  UNL         0.0723
     33 CL         -7.2248    1.6238   55.8773 Cl      1  UNL        -0.0814
     34 CL        -10.3269   -2.7970   55.1210 Cl      1  UNL        -0.0843
     35 C          -1.4886    4.7725   46.1509 C.3     1  UNL         0.0038
     36 C           2.8012    1.9496   46.3402 C.3     1  UNL        -0.0379
     37 H           4.3080    4.5843   49.9255 H       1  UNL         0.0639
     38 H           4.6852    2.9977   48.0299 H       1  UNL         0.0627
     39 H           1.9629    5.3581   50.4100 H       1  UNL         0.0840
     40 H           0.3016    3.1002   46.0100 H       1  UNL         0.0643
     41 H          -2.3606   -0.9956   46.0605 H       1  UNL         0.0627
     42 H          -1.0464   -2.2526   47.7769 H       1  UNL         0.0639
     43 H           0.7161   -1.0271   49.0898 H       1  UNL         0.0840
     44 H          -2.7148    2.4466   45.8600 H       1  UNL         0.0280
     45 H          -2.8160    0.9979   44.8525 H       1  UNL         0.0280
     46 H          -1.4594    2.1100   44.6486 H       1  UNL         0.0280
     47 H          -0.5561    2.4105   49.2822 H       1  UNL         0.0402
     48 H          -2.1160    0.7673   50.0201 H       1  UNL         0.0288
     49 H          -2.6767    1.2540   48.4245 H       1  UNL         0.0288
     50 H          -4.5456    1.0608   50.0649 H       1  UNL         0.0431
     51 H          -4.4062    2.7084   49.4257 H       1  UNL         0.0431
     52 H          -2.7458    3.9106   52.6137 H       1  UNL         0.0431
     53 H          -3.3329    4.5176   51.0624 H       1  UNL         0.0431
     54 H          -0.9591    2.6676   51.5748 H       1  UNL         0.0288
     55 H          -0.8959    4.3046   50.9347 H       1  UNL         0.0288
     56 H          -5.6255    3.4732   51.7173 H       1  UNL         0.0455
     57 H          -4.8681    2.8964   53.2040 H       1  UNL         0.0455
     58 H          -5.4437    0.5354   52.6001 H       1  UNL         0.0586
     59 H          -6.1977    1.1050   51.0889 H       1  UNL         0.0586
     60 H          -8.4535   -0.1434   51.4516 H       1  UNL         0.0652
     61 H          -9.7811   -2.0273   52.3983 H       1  UNL         0.0639
     62 H          -8.8439   -0.6811   56.3912 H       1  UNL         0.0655
     63 H          -0.6033    5.0365   45.5591 H       1  UNL         0.0433
     64 H          -1.9431    5.6991   46.5236 H       1  UNL         0.0433
     65 H          -2.2103    4.2527   45.5085 H       1  UNL         0.0433
     66 H           3.8655    1.7197   46.2057 H       1  UNL         0.0280
     67 H           2.4396    2.3729   45.3953 H       1  UNL         0.0280
     68 H           2.2816    0.9990   46.5112 H       1  UNL         0.0280
@<TRIPOS>BOND
     1     1     2   ar
     2     1     6   ar
     3     1    37    1
     4     2     3   ar
     5     2    38    1
     6     3     4   ar
     7     3    36    1
     8     4     5   ar
     9     4     7    1
    10     5     6   ar
    11     6    39    1
    12     7     8    1
    13     7    15    1
    14     7    40    1
    15     8     9   ar
    16     8    13   ar
    17     9    10   ar
    18     9    14    1
    19    10    11   ar
    20    10    41    1
    21    11    12   ar
    22    11    42    1
    23    12    13   ar
    24    12    43    1
    25    14    44    1
    26    14    45    1
    27    14    46    1
    28    15    16   am
    29    15    35    1
    30    16    17    2
    31    16    18    1
    32    18    19    1
    33    18    23    1
    34    18    47    1
    35    19    20    1
    36    19    48    1
    37    19    49    1
    38    20    21    1
    39    20    50    1
    40    20    51    1
    41    21    22    1
    42    21    24    1
    43    22    23    1
    44    22    52    1
    45    22    53    1
    46    23    54    1
    47    23    55    1
    48    24    25    1
    49    24    56    1
    50    24    57    1
    51    25    26    1
    52    25    58    1
    53    25    59    1
    54    26    27    1
    55    27    28   ar
    56    27    32   ar
    57    28    29   ar
    58    28    60    1
    59    29    30   ar
    60    29    61    1
    61    30    31   ar
    62    30    34    1
    63    31    32   ar
    64    31    62    1
    65    32    33    1
    66    35    63    1
    67    35    64    1
    68    35    65    1
    69    36    66    1
    70    36    67    1
    71    36    68    1
@<TRIPOS>SUBSTRUCTURE
     1 UNL         1 TEMP              0 ****  ****    0 ROOT


##########                                Name:    ZINC000541000201
##########                DOCK_Rotatable_Bonds:                  10
##########                         Heavy_Atoms:                  30
##########                    Molecular_Weight:             420.413
##########                DOCK_Rotatable_Bonds:                  10
##########                       Formal_Charge:               -0.03
##########                     HBond_Acceptors:                   9
##########                        HBond_Donors:                   1
##########                         Heavy_Atoms:                  30
##########                          Grid_Score:          -36.745872
##########                     Grid_vdw_energy:          -36.046989
##########                      Grid_es_energy:           -0.698885
##########           Internal_energy_repulsive:           13.905602

@<TRIPOS>MOLECULE
ZINC000541000201
 52 54 1 0 0
SMALL
USER_CHARGES


@<TRIPOS>ATOM
      1 C1         -0.0495    2.3304   51.8239 C.3     1  ZINC000541000201    0.0400
      2 O2         -1.3055    2.0755   51.1412 O.3     1  ZINC000541000201   -0.3500
      3 C3         -1.3557    2.3613   49.8306 C.2     1  ZINC000541000201    0.4500
      4 O4         -0.3554    2.7102   49.2497 O.2     1  ZINC000541000201   -0.4900
      5 C5         -2.6596    2.2469   49.0839 C.3     1  ZINC000541000201    0.2100
      6 H6         -3.0477    3.2440   48.8755 H       1  ZINC000541000201    0.1400
      7 N7         -3.6262    1.5075   49.8996 N.am    1  ZINC000541000201   -0.7100
      8 C8         -4.4493    2.1706   50.7358 C.2     1  ZINC000541000201    0.5800
      9 O9         -4.3907    3.3826   50.8121 O.2     1  ZINC000541000201   -0.5300
     10 C10        -5.4219    1.4255   51.5590 C.ar    1  ZINC000541000201   -0.2300
     11 C11        -5.5653    0.0383   51.4102 C.ar    1  ZINC000541000201    0.0200
     12 C12        -6.4880   -0.6139   52.2025 C.ar    1  ZINC000541000201   -0.2000
     13 C13        -7.2397    0.1191   53.1153 C.ar    1  ZINC000541000201    0.3500
     14 O14        -8.1470   -0.5160   53.8958 O.3     1  ZINC000541000201   -0.2900
     15 C15        -8.8465    0.2788   54.8556 C.3     1  ZINC000541000201    0.0800
     16 C16        -9.8798   -0.5828   55.6232 C.3     1  ZINC000541000201   -0.1400
     17 C17       -10.0712    0.2071   56.9417 C.3     1  ZINC000541000201   -0.1200
     18 C18        -8.6596    0.7311   57.2772 C.3     1  ZINC000541000201   -0.1200
     19 C19        -7.8809    0.7767   55.9508 C.3     1  ZINC000541000201   -0.1200
     20 N20        -7.0808    1.4286   53.2326 N.ar    1  ZINC000541000201   -0.5400
     21 C21        -6.2086    2.0899   52.5011 C.ar    1  ZINC000541000201    0.1800
     22 C22        -2.4330    1.5147   47.7865 C.ar    1  ZINC000541000201   -0.1300
     23 C23        -2.8234    2.0908   46.5916 C.ar    1  ZINC000541000201   -0.0700
     24 C24        -2.6168    1.4215   45.4009 C.ar    1  ZINC000541000201   -0.1300
     25 C25        -2.0167    0.1707   45.4046 C.ar    1  ZINC000541000201    0.1200
     26 O26        -1.8121   -0.4894   44.2344 O.3     1  ZINC000541000201   -0.3200
     27 C27        -1.2954    0.2727   43.1416 C.3     1  ZINC000541000201    0.4100
     28 F28        -0.0597    0.8225   43.4994 F       1  ZINC000541000201   -0.2000
     29 F29        -1.1309   -0.5596   42.0291 F       1  ZINC000541000201   -0.2000
     30 C30        -1.6256   -0.4049   46.6047 C.ar    1  ZINC000541000201   -0.1900
     31 C31        -1.8301    0.2705   47.7924 C.ar    1  ZINC000541000201   -0.0500
     32 H32        -0.1451    2.0567   52.8747 H       1  ZINC000541000201    0.1000
     33 H33         0.7408    1.7368   51.3642 H       1  ZINC000541000201    0.0600
     34 H34         0.1985    3.3888   51.7452 H       1  ZINC000541000201    0.0600
     35 H35        -3.6737    0.5406   49.8379 H       1  ZINC000541000201    0.4100
     36 H36        -4.9687   -0.5060   50.6931 H       1  ZINC000541000201    0.1600
     37 H37        -6.6252   -1.6816   52.1146 H       1  ZINC000541000201    0.1500
     38 H38        -9.3367    1.1211   54.3675 H       1  ZINC000541000201    0.1000
     39 H39       -10.8172   -0.6452   55.0707 H       1  ZINC000541000201    0.0700
     40 H40        -9.4810   -1.5773   55.8231 H       1  ZINC000541000201    0.0800
     41 H41       -10.7610    1.0378   56.7921 H       1  ZINC000541000201    0.0700
     42 H42       -10.4315   -0.4515   57.7321 H       1  ZINC000541000201    0.0700
     43 H43        -8.7248    1.7310   57.7065 H       1  ZINC000541000201    0.0700
     44 H44        -8.1670    0.0555   57.9764 H       1  ZINC000541000201    0.0700
     45 H45        -7.0103    0.1233   56.0063 H       1  ZINC000541000201    0.0800
     46 H46        -7.5681    1.7986   55.7364 H       1  ZINC000541000201    0.0700
     47 H47        -6.1070    3.1579   52.6252 H       1  ZINC000541000201    0.1600
     48 H48        -3.2904    3.0645   46.5893 H       1  ZINC000541000201    0.1300
     49 H49        -2.9225    1.8716   44.4680 H       1  ZINC000541000201    0.1400
     50 H50        -1.9921    1.0742   42.8958 H       1  ZINC000541000201    0.1900
     51 H51        -1.1586   -1.3787   46.6102 H       1  ZINC000541000201    0.1400
     52 H52        -1.5254   -0.1770   48.7269 H       1  ZINC000541000201    0.1400
@<TRIPOS>BOND
     1     1     2    1
     2     1    32    1
     3     1    33    1
     4     1    34    1
     5     2     3    1
     6     3     4    2
     7     3     5    1
     8     5     6    1
     9     5     7    1
    10     5    22    1
    11     7     8   am
    12     7    35    1
    13     8     9    2
    14     8    10    1
    15    10    21   ar
    16    10    11   ar
    17    11    12   ar
    18    11    36    1
    19    12    13   ar
    20    12    37    1
    21    13    14    1
    22    13    20   ar
    23    14    15    1
    24    15    19    1
    25    15    16    1
    26    15    38    1
    27    16    17    1
    28    16    39    1
    29    16    40    1
    30    17    18    1
    31    17    41    1
    32    17    42    1
    33    18    19    1
    34    18    43    1
    35    18    44    1
    36    19    45    1
    37    19    46    1
    38    20    21   ar
    39    21    47    1
    40    22    31   ar
    41    22    23   ar
    42    23    24   ar
    43    23    48    1
    44    24    25   ar
    45    24    49    1
    46    25    26    1
    47    25    30   ar
    48    26    27    1
    49    27    28    1
    50    27    29    1
    51    27    50    1
    52    30    31   ar
    53    30    51    1
    54    31    52    1
@<TRIPOS>SUBSTRUCTURE
     1 ZINC000541000201        1 TEMP              0 ****  ****    0 ROOT


##########                                Name:    ZINC000013809319
##########                DOCK_Rotatable_Bonds:                  10
##########                         Heavy_Atoms:                  30
##########                    Molecular_Weight:             407.469
##########                DOCK_Rotatable_Bonds:                  10
##########                       Formal_Charge:         -0.00999978
##########                     HBond_Acceptors:                   7
##########                        HBond_Donors:                   1
##########                         Heavy_Atoms:                  30
##########                          Grid_Score:          -36.726383
##########                     Grid_vdw_energy:          -34.555325
##########                      Grid_es_energy:           -2.171060
##########           Internal_energy_repulsive:           19.242708

@<TRIPOS>MOLECULE
ZINC000013809319
 55 57 1 0 0
SMALL
USER_CHARGES


@<TRIPOS>ATOM
      1 C1        -16.8190   -1.5264   56.0296 C.3     1  ZINC000013809319   -0.1500
      2 C2        -15.3039   -1.4629   55.8260 C.3     1  ZINC000013809319    0.0500
      3 O3        -15.0096   -0.6461   54.6910 O.3     1  ZINC000013809319   -0.3100
      4 C4        -13.7188   -0.6173   54.2703 C.ar    1  ZINC000013809319    0.1500
      5 C5        -12.7323   -1.2494   55.0168 C.ar    1  ZINC000013809319   -0.2200
      6 C6        -11.4217   -1.2227   54.5926 C.ar    1  ZINC000013809319   -0.0300
      7 C7        -11.0856   -0.5596   53.4113 C.ar    1  ZINC000013809319   -0.1100
      8 C8         -9.6789   -0.5291   52.9521 C.2     1  ZINC000013809319    0.2300
      9 C9         -9.3653   -0.8518   51.6417 C.2     1  ZINC000013809319   -0.2900
     10 C10        -8.0167   -0.8095   51.2476 C.2     1  ZINC000013809319    0.5300
     11 O11        -7.6941   -1.0853   50.1035 O.2     1  ZINC000013809319   -0.5400
     12 N12        -7.0857   -0.4576   52.1589 N.am    1  ZINC000013809319   -0.5100
     13 C13        -5.6730   -0.4050   51.7748 C.3     1  ZINC000013809319    0.0700
     14 C14        -5.2732    1.0265   51.5257 C.2     1  ZINC000013809319    0.5000
     15 O15        -5.9989    1.9299   51.8836 O.2     1  ZINC000013809319   -0.5200
     16 N16        -4.1091    1.3028   50.9052 N.am    1  ZINC000013809319   -0.7200
     17 C17        -3.7196    2.6945   50.6645 C.3     1  ZINC000013809319    0.1300
     18 C18        -2.3025    2.7352   50.0890 C.3     1  ZINC000013809319   -0.0800
     19 C19        -2.2849    2.0470   48.7484 C.ar    1  ZINC000013809319   -0.1200
     20 C20        -2.9449    2.6102   47.6736 C.ar    1  ZINC000013809319   -0.0800
     21 C21        -2.9296    1.9788   46.4434 C.ar    1  ZINC000013809319   -0.1500
     22 C22        -2.2536    0.7833   46.2857 C.ar    1  ZINC000013809319   -0.0800
     23 C23        -1.5915    0.2160   47.3575 C.ar    1  ZINC000013809319   -0.2100
     24 C24        -1.6010    0.8500   48.5914 C.ar    1  ZINC000013809319    0.1300
     25 O25        -0.9505    0.2942   49.6471 O.3     1  ZINC000013809319   -0.3100
     26 C26        -0.0504   -0.7787   49.3628 C.3     1  ZINC000013809319    0.0300
     27 C27        -7.4495   -0.1537   53.4211 C.2     1  ZINC000013809319    0.3900
     28 N28        -8.6964   -0.1828   53.8021 N.2     1  ZINC000013809319   -0.5300
     29 C29       -12.0793    0.0744   52.6637 C.ar    1  ZINC000013809319   -0.0500
     30 C30       -13.3888    0.0391   53.0911 C.ar    1  ZINC000013809319   -0.1600
     31 H31       -17.2057   -0.5209   56.1956 H       1  ZINC000013809319    0.0700
     32 H32       -17.2871   -1.9539   55.1430 H       1  ZINC000013809319    0.0700
     33 H33       -17.0435   -2.1495   56.8953 H       1  ZINC000013809319    0.0800
     34 H34       -14.8357   -1.0354   56.7127 H       1  ZINC000013809319    0.0600
     35 H35       -14.9172   -2.4685   55.6601 H       1  ZINC000013809319    0.0600
     36 H36       -12.9931   -1.7620   55.9311 H       1  ZINC000013809319    0.1300
     37 H37       -10.6551   -1.7139   55.1737 H       1  ZINC000013809319    0.1400
     38 H38       -10.1383   -1.1294   50.9402 H       1  ZINC000013809319    0.1600
     39 H39        -5.0625   -0.8182   52.5777 H       1  ZINC000013809319    0.1300
     40 H40        -5.5215   -0.9878   50.8662 H       1  ZINC000013809319    0.1300
     41 H41        -3.5292    0.5802   50.6178 H       1  ZINC000013809319    0.4000
     42 H42        -4.4125    3.1484   49.9562 H       1  ZINC000013809319    0.0700
     43 H43        -3.7462    3.2468   51.6039 H       1  ZINC000013809319    0.0700
     44 H44        -1.9885    3.7720   49.9694 H       1  ZINC000013809319    0.0800
     45 H45        -1.6197    2.2248   50.7683 H       1  ZINC000013809319    0.0800
     46 H46        -3.4737    3.5440   47.7944 H       1  ZINC000013809319    0.1300
     47 H47        -3.4469    2.4204   45.6044 H       1  ZINC000013809319    0.1300
     48 H48        -2.2434    0.2920   45.3240 H       1  ZINC000013809319    0.1300
     49 H49        -1.0639   -0.7181   47.2339 H       1  ZINC000013809319    0.1300
     50 H50         0.7312   -0.4283   48.6888 H       1  ZINC000013809319    0.0600
     51 H51         0.4007   -1.1301   50.2908 H       1  ZINC000013809319    0.1000
     52 H52        -0.5966   -1.5961   48.8921 H       1  ZINC000013809319    0.0600
     53 H53        -6.6883    0.1252   54.1347 H       1  ZINC000013809319    0.2000
     54 H54       -11.8228    0.5883   51.7491 H       1  ZINC000013809319    0.1400
     55 H55       -14.1582    0.5291   52.5130 H       1  ZINC000013809319    0.1400
@<TRIPOS>BOND
     1     1     2    1
     2     1    31    1
     3     1    32    1
     4     1    33    1
     5     2     3    1
     6     2    34    1
     7     2    35    1
     8     3     4    1
     9     4    30   ar
    10     4     5   ar
    11     5     6   ar
    12     5    36    1
    13     6     7   ar
    14     6    37    1
    15     7     8    1
    16     7    29   ar
    17     8    28    1
    18     8     9    2
    19     9    10    1
    20     9    38    1
    21    10    11    2
    22    10    12   am
    23    12    13    1
    24    12    27    1
    25    13    14    1
    26    13    39    1
    27    13    40    1
    28    14    15    2
    29    14    16   am
    30    16    17    1
    31    16    41    1
    32    17    18    1
    33    17    42    1
    34    17    43    1
    35    18    19    1
    36    18    44    1
    37    18    45    1
    38    19    24   ar
    39    19    20   ar
    40    20    21   ar
    41    20    46    1
    42    21    22   ar
    43    21    47    1
    44    22    23   ar
    45    22    48    1
    46    23    24   ar
    47    23    49    1
    48    24    25    1
    49    25    26    1
    50    26    50    1
    51    26    51    1
    52    26    52    1
    53    27    28    2
    54    27    53    1
    55    29    30   ar
    56    29    54    1
    57    30    55    1
@<TRIPOS>SUBSTRUCTURE
     1 ZINC000013809319        1 TEMP              0 ****  ****    0 ROOT


##########                                Name:    ZINC000654382142
##########                DOCK_Rotatable_Bonds:                  14
##########                         Heavy_Atoms:                  24
##########                    Molecular_Weight:             379.401
##########                DOCK_Rotatable_Bonds:                  14
##########                       Formal_Charge:          0.00999933
##########                     HBond_Acceptors:                  12
##########                        HBond_Donors:                   2
##########                         Heavy_Atoms:                  24
##########                          Grid_Score:          -36.536087
##########                     Grid_vdw_energy:          -33.180077
##########                      Grid_es_energy:           -3.356012
##########           Internal_energy_repulsive:           19.314217

@<TRIPOS>MOLECULE
ZINC000654382142
 48 47 1 0 0
SMALL
USER_CHARGES


@<TRIPOS>ATOM
      1 C1        -12.2152   -3.4722   56.8481 C.3     1  ZINC000654382142    0.0300
      2 O2        -11.5214   -3.9982   57.9813 O.3     1  ZINC000654382142   -0.3700
      3 C3        -10.2703   -3.3599   58.2445 C.3     1  ZINC000654382142    0.0400
      4 C4        -10.5206   -1.9708   58.8349 C.3     1  ZINC000654382142    0.1400
      5 N5         -9.2435   -1.3690   59.2260 N.am    1  ZINC000654382142   -0.6100
      6 C6         -8.7064   -1.5987   60.5695 C.3     1  ZINC000654382142    0.0800
      7 C7         -8.7744   -0.2995   61.3748 C.3     1  ZINC000654382142    0.0500
      8 H8         -8.2925    0.5013   60.8140 H       1  ZINC000654382142    0.1400
      9 O9         -8.1027   -0.4776   62.6236 O.3     1  ZINC000654382142   -0.5200
     10 C10       -10.2379    0.0660   61.6306 C.3     1  ZINC000654382142    0.4200
     11 F11       -10.3161    0.9464   62.7150 F       1  ZINC000654382142   -0.1800
     12 F12       -10.7710    0.6800   60.4921 F       1  ZINC000654382142   -0.1700
     13 F13       -10.9649   -1.0941   61.9184 F       1  ZINC000654382142   -0.1800
     14 C14        -8.5627   -0.6039   58.3499 C.2     1  ZINC000654382142    0.7100
     15 O15        -7.5020   -0.1057   58.6740 O.2     1  ZINC000654382142   -0.5600
     16 N16        -9.0575   -0.3913   57.1144 N.am    1  ZINC000654382142   -0.7500
     17 C17        -8.3183    0.4418   56.1626 C.3     1  ZINC000654382142    0.1400
     18 C18        -8.5863   -0.0502   54.7389 C.3     1  ZINC000654382142   -0.1600
     19 C19        -7.7169    0.7360   53.7556 C.3     1  ZINC000654382142    0.1200
     20 N20        -8.0995    0.3934   52.3836 N.am    1  ZINC000654382142   -1.0000
     21 C21        -9.3811    0.8543   51.8438 C.3     1  ZINC000654382142    0.0900
     22 S22        -7.0834   -0.5147   51.4428 S.o2    1  ZINC000654382142    2.6100
     23 C23        -5.5607    0.4663   51.3438 C.3     1  ZINC000654382142   -0.6800
     24 O24        -6.8666   -1.6967   52.2011 O.2     1  ZINC000654382142   -0.9500
     25 O25        -7.7279   -0.5640   50.1773 O.2     1  ZINC000654382142   -0.9500
     26 H26       -13.1544   -4.0092   56.7157 H       1  ZINC000654382142    0.0900
     27 H27       -12.4213   -2.4137   57.0074 H       1  ZINC000654382142    0.0400
     28 H28       -11.5991   -3.5923   55.9570 H       1  ZINC000654382142    0.0400
     29 H29        -9.6990   -3.9587   58.9539 H       1  ZINC000654382142    0.0500
     30 H30        -9.7088   -3.2640   57.3152 H       1  ZINC000654382142    0.0600
     31 H31       -11.0057   -1.3411   58.0891 H       1  ZINC000654382142    0.0900
     32 H32       -11.1641   -2.0587   59.7103 H       1  ZINC000654382142    0.1000
     33 H33        -9.2954   -2.3674   61.0696 H       1  ZINC000654382142    0.1000
     34 H34        -7.6694   -1.9263   60.4951 H       1  ZINC000654382142    0.1000
     35 H35        -7.2016   -0.8183   62.5404 H       1  ZINC000654382142    0.3900
     36 H36        -9.9030   -0.7898   56.8554 H       1  ZINC000654382142    0.3900
     37 H37        -8.6446    1.4776   56.2566 H       1  ZINC000654382142    0.0700
     38 H38        -7.2511    0.3763   56.3749 H       1  ZINC000654382142    0.0700
     39 H39        -8.3450   -1.1108   54.6696 H       1  ZINC000654382142    0.0700
     40 H40        -9.6378    0.1000   54.4945 H       1  ZINC000654382142    0.0800
     41 H41        -7.8609    1.8044   53.9170 H       1  ZINC000654382142    0.0900
     42 H42        -6.6686    0.4826   53.9145 H       1  ZINC000654382142    0.1000
     43 H43        -9.2472    1.8266   51.3697 H       1  ZINC000654382142    0.0600
     44 H44        -9.7438    0.1376   51.1070 H       1  ZINC000654382142    0.0700
     45 H45       -10.1059    0.9415   52.6532 H       1  ZINC000654382142    0.0700
     46 H46        -5.1604    0.6179   52.3462 H       1  ZINC000654382142    0.1300
     47 H47        -4.8267   -0.0623   50.7355 H       1  ZINC000654382142    0.1300
     48 H48        -5.7801    1.4329   50.8901 H       1  ZINC000654382142    0.1300
@<TRIPOS>BOND
     1     1     2    1
     2     1    26    1
     3     1    27    1
     4     1    28    1
     5     2     3    1
     6     3     4    1
     7     3    29    1
     8     3    30    1
     9     4     5    1
    10     4    31    1
    11     4    32    1
    12     5     6    1
    13     5    14   am
    14     6     7    1
    15     6    33    1
    16     6    34    1
    17     7     8    1
    18     7     9    1
    19     7    10    1
    20     9    35    1
    21    10    11    1
    22    10    12    1
    23    10    13    1
    24    14    15    2
    25    14    16   am
    26    16    17    1
    27    16    36    1
    28    17    18    1
    29    17    37    1
    30    17    38    1
    31    18    19    1
    32    18    39    1
    33    18    40    1
    34    19    20    1
    35    19    41    1
    36    19    42    1
    37    20    21    1
    38    20    22   am
    39    21    43    1
    40    21    44    1
    41    21    45    1
    42    22    23    1
    43    22    24    2
    44    22    25    2
    45    23    46    1
    46    23    47    1
    47    23    48    1
@<TRIPOS>SUBSTRUCTURE
     1 ZINC000654382142        1 TEMP              0 ****  ****    0 ROOT


##########                                Name:    ZINC000046390957
##########                DOCK_Rotatable_Bonds:                   9
##########                         Heavy_Atoms:                  29
##########                    Molecular_Weight:             408.521
##########                DOCK_Rotatable_Bonds:                   9
##########                       Formal_Charge:           0.0100005
##########                     HBond_Acceptors:                   6
##########                        HBond_Donors:                   1
##########                         Heavy_Atoms:                  29
##########                          Grid_Score:          -36.309578
##########                     Grid_vdw_energy:          -34.501919
##########                      Grid_es_energy:           -1.807659
##########           Internal_energy_repulsive:           12.995986

@<TRIPOS>MOLECULE
ZINC000046390957
 53 55 1 0 0
SMALL
USER_CHARGES


@<TRIPOS>ATOM
      1 C1         -7.9336    0.6846   56.1223 C.3     1  ZINC000046390957   -0.1100
      2 C2         -8.3952   -0.0762   54.9061 C.ar    1  ZINC000046390957   -0.0600
      3 C3         -9.4260   -0.9894   55.0121 C.ar    1  ZINC000046390957   -0.1200
      4 C4         -9.8499   -1.6883   53.8968 C.ar    1  ZINC000046390957   -0.1100
      5 C5         -9.2441   -1.4751   52.6721 C.ar    1  ZINC000046390957   -0.1200
      6 C6         -8.2132   -0.5629   52.5594 C.ar    1  ZINC000046390957   -0.0800
      7 C7         -7.5540   -0.3308   51.2242 C.3     1  ZINC000046390957   -0.1100
      8 C8         -7.7887    0.1444   53.6765 C.ar    1  ZINC000046390957    0.1300
      9 N9         -6.7449    1.0696   53.5656 N.am    1  ZINC000046390957   -0.6800
     10 C10        -7.0112    2.3504   53.2414 C.2     1  ZINC000046390957    0.5200
     11 O11        -8.1558    2.7010   53.0457 O.2     1  ZINC000046390957   -0.4900
     12 C12        -5.8871    3.3469   53.1219 C.3     1  ZINC000046390957    0.0700
     13 H13        -6.2141    4.1928   52.5173 H       1  ZINC000046390957    0.1100
     14 C14        -5.4914    3.8388   54.5156 C.3     1  ZINC000046390957   -0.1700
     15 O15        -4.7437    2.7134   52.4896 O.3     1  ZINC000046390957   -0.3300
     16 C16        -3.8243    3.5232   51.9415 C.2     1  ZINC000046390957    0.4700
     17 O17        -4.0971    4.6771   51.7091 O.2     1  ZINC000046390957   -0.4800
     18 C18        -2.4515    2.9933   51.6162 C.3     1  ZINC000046390957   -0.0300
     19 C19        -2.4430    2.4496   50.2107 C.2     1  ZINC000046390957    0.0800
     20 C20        -3.2188    2.9423   49.2404 C.2     1  ZINC000046390957   -0.2500
     21 S21        -2.8965    2.0257   47.7705 S.3     1  ZINC000046390957    0.1300
     22 C22        -1.7506    1.0713   48.6068 C.2     1  ZINC000046390957    0.0600
     23 C23        -0.9504   -0.0495   47.9948 C.3     1  ZINC000046390957    0.0000
     24 C24        -0.7258    0.2344   46.5319 C.ar    1  ZINC000046390957   -0.0900
     25 C25         0.3595    0.9924   46.1336 C.ar    1  ZINC000046390957   -0.0900
     26 C26         0.5654    1.2528   44.7917 C.ar    1  ZINC000046390957   -0.1200
     27 C27        -0.3136    0.7551   43.8482 C.ar    1  ZINC000046390957   -0.1200
     28 C28        -1.3984   -0.0037   44.2463 C.ar    1  ZINC000046390957   -0.1200
     29 C29        -1.6020   -0.2678   45.5879 C.ar    1  ZINC000046390957   -0.1100
     30 N30        -1.6660    1.4534   49.8363 N.2     1  ZINC000046390957   -0.4500
     31 H31        -8.5777    1.5504   56.2755 H       1  ZINC000046390957    0.0800
     32 H32        -7.9826    0.0359   56.9970 H       1  ZINC000046390957    0.0700
     33 H33        -6.9063    1.0177   55.9742 H       1  ZINC000046390957    0.0600
     34 H34        -9.9011   -1.1582   55.9672 H       1  ZINC000046390957    0.1300
     35 H35       -10.6555   -2.4024   53.9823 H       1  ZINC000046390957    0.1300
     36 H36        -9.5772   -2.0227   51.8029 H       1  ZINC000046390957    0.1300
     37 H37        -8.0747    0.4677   50.6958 H       1  ZINC000046390957    0.0700
     38 H38        -6.5130   -0.0465   51.3776 H       1  ZINC000046390957    0.0600
     39 H39        -7.5974   -1.2460   50.6336 H       1  ZINC000046390957    0.0700
     40 H40        -5.8296    0.7893   53.7221 H       1  ZINC000046390957    0.4100
     41 H41        -6.3497    4.3145   54.9903 H       1  ZINC000046390957    0.0800
     42 H42        -5.1642    2.9930   55.1203 H       1  ZINC000046390957    0.0800
     43 H43        -4.6783    4.5597   54.4292 H       1  ZINC000046390957    0.0800
     44 H44        -1.7220    3.7990   51.6987 H       1  ZINC000046390957    0.1200
     45 H45        -2.1943    2.1974   52.3151 H       1  ZINC000046390957    0.1300
     46 H46        -3.9196    3.7580   49.3397 H       1  ZINC000046390957    0.1800
     47 H47         0.0115   -0.1281   48.5015 H       1  ZINC000046390957    0.1000
     48 H48        -1.4959   -0.9869   48.1034 H       1  ZINC000046390957    0.1000
     49 H49         1.0463    1.3812   46.8708 H       1  ZINC000046390957    0.1200
     50 H50         1.4129    1.8455   44.4806 H       1  ZINC000046390957    0.1200
     51 H51        -0.1530    0.9592   42.7998 H       1  ZINC000046390957    0.1200
     52 H52        -2.0853   -0.3923   43.5092 H       1  ZINC000046390957    0.1200
     53 H53        -2.4495   -0.8605   45.8990 H       1  ZINC000046390957    0.1200
@<TRIPOS>BOND
     1     1     2    1
     2     1    31    1
     3     1    32    1
     4     1    33    1
     5     2     8   ar
     6     2     3   ar
     7     3     4   ar
     8     3    34    1
     9     4     5   ar
    10     4    35    1
    11     5     6   ar
    12     5    36    1
    13     6     7    1
    14     6     8   ar
    15     7    37    1
    16     7    38    1
    17     7    39    1
    18     8     9    1
    19     9    10   am
    20     9    40    1
    21    10    11    2
    22    10    12    1
    23    12    13    1
    24    12    14    1
    25    12    15    1
    26    14    41    1
    27    14    42    1
    28    14    43    1
    29    15    16    1
    30    16    17    2
    31    16    18    1
    32    18    19    1
    33    18    44    1
    34    18    45    1
    35    19    30    1
    36    19    20    2
    37    20    21    1
    38    20    46    1
    39    21    22    1
    40    22    23    1
    41    22    30    2
    42    23    24    1
    43    23    47    1
    44    23    48    1
    45    24    29   ar
    46    24    25   ar
    47    25    26   ar
    48    25    49    1
    49    26    27   ar
    50    26    50    1
    51    27    28   ar
    52    27    51    1
    53    28    29   ar
    54    28    52    1
    55    29    53    1
@<TRIPOS>SUBSTRUCTURE
     1 ZINC000046390957        1 TEMP              0 ****  ****    0 ROOT


##########                                Name:    ZINC000821177065
##########                DOCK_Rotatable_Bonds:                  10
##########                         Heavy_Atoms:                  25
##########                    Molecular_Weight:             341.413
##########                DOCK_Rotatable_Bonds:                  10
##########                       Formal_Charge:          0.00999917
##########                     HBond_Acceptors:                   7
##########                        HBond_Donors:                   3
##########                         Heavy_Atoms:                  25
##########                          Grid_Score:          -35.909794
##########                     Grid_vdw_energy:          -34.186810
##########                      Grid_es_energy:           -1.722983
##########           Internal_energy_repulsive:           23.324236

@<TRIPOS>MOLECULE
ZINC000821177065
 48 51 1 0 0
SMALL
USER_CHARGES


@<TRIPOS>ATOM
      1 O1         -6.6755    0.1286   50.5225 O.2     1  ZINC000821177065   -0.5600
      2 C2         -6.4234    0.3216   51.6962 C.2     1  ZINC000821177065    0.7100
      3 N3         -7.1678   -0.2699   52.6515 N.am    1  ZINC000821177065   -0.7300
      4 C4         -8.2844   -1.1407   52.2757 C.3     1  ZINC000821177065    0.1200
      5 C5         -9.5514   -0.6888   53.0047 C.3     1  ZINC000821177065    0.1900
      6 O6        -10.6547   -0.7046   52.0968 O.3     1  ZINC000821177065   -0.5400
      7 C7         -9.8357   -1.6388   54.1698 C.3     1  ZINC000821177065   -0.1500
      8 C8         -9.9740   -1.0249   55.5644 C.3     1  ZINC000821177065   -0.1600
      9 C9        -11.2114   -1.5504   54.8337 C.3     1  ZINC000821177065   -0.1700
     10 C10        -9.3524    0.7304   53.5409 C.3     1  ZINC000821177065   -0.1800
     11 C11        -9.5744    1.8905   52.5686 C.3     1  ZINC000821177065   -0.1900
     12 C12       -10.5935    1.6150   53.6759 C.3     1  ZINC000821177065   -0.1700
     13 N13        -5.3962    1.1226   52.0420 N.am    1  ZINC000821177065   -0.6500
     14 C14        -4.6219    1.7379   51.0483 C.2     1  ZINC000821177065    0.3200
     15 N15        -4.1377    1.1549   49.9772 N.2     1  ZINC000821177065   -0.3200
     16 N16        -3.4246    2.1117   49.2437 N.pl3   1  ZINC000821177065   -0.3600
     17 C17        -2.7246    1.8793   47.9779 C.3     1  ZINC000821177065    0.1900
     18 C18        -1.6833    0.8069   48.1693 C.ar    1  ZINC000821177065    0.1100
     19 C19        -1.6692   -0.2892   47.3281 C.ar    1  ZINC000821177065   -0.1500
     20 C20        -0.7066   -1.2702   47.5124 C.ar    1  ZINC000821177065   -0.0700
     21 C21         0.2095   -1.1108   48.5404 C.ar    1  ZINC000821177065   -0.1700
     22 C22         0.1337    0.0129   49.3419 C.ar    1  ZINC000821177065    0.1000
     23 N23        -0.7924    0.9281   49.1343 N.ar    1  ZINC000821177065   -0.4700
     24 C24        -3.4958    3.2851   49.9066 C.2     1  ZINC000821177065    0.0700
     25 C25        -4.2340    3.0870   51.0223 C.2     1  ZINC000821177065   -0.2600
     26 H26        -6.9642   -0.1191   53.5878 H       1  ZINC000821177065    0.4000
     27 H27        -8.4444   -1.0822   51.1990 H       1  ZINC000821177065    0.0700
     28 H28        -8.0527   -2.1689   52.5533 H       1  ZINC000821177065    0.0800
     29 H29       -10.4837   -0.2479   51.2619 H       1  ZINC000821177065    0.3800
     30 H30        -9.3746   -2.6238   54.0965 H       1  ZINC000821177065    0.1100
     31 H31        -9.6037   -1.6059   56.4090 H       1  ZINC000821177065    0.0900
     32 H32        -9.8624    0.0558   55.6518 H       1  ZINC000821177065    0.1100
     33 H33       -11.9137   -0.8155   54.4405 H       1  ZINC000821177065    0.1000
     34 H34       -11.6550   -2.4772   55.1977 H       1  ZINC000821177065    0.0900
     35 H35        -8.5693    0.8442   54.2905 H       1  ZINC000821177065    0.1100
     36 H36        -8.9371    2.7680   52.6781 H       1  ZINC000821177065    0.1000
     37 H37        -9.8621    1.6429   51.5468 H       1  ZINC000821177065    0.1100
     38 H38       -11.5517    1.1860   53.3828 H       1  ZINC000821177065    0.0900
     39 H39       -10.6267    2.3110   54.5141 H       1  ZINC000821177065    0.1000
     40 H40        -5.1926    1.2734   52.9784 H       1  ZINC000821177065    0.4100
     41 H41        -3.4401    1.5599   47.2202 H       1  ZINC000821177065    0.1000
     42 H42        -2.2413    2.8016   47.6554 H       1  ZINC000821177065    0.1200
     43 H43        -2.3991   -0.3810   46.5372 H       1  ZINC000821177065    0.1400
     44 H44        -0.6717   -2.1381   46.8704 H       1  ZINC000821177065    0.1400
     45 H45         0.9728   -1.8551   48.7132 H       1  ZINC000821177065    0.1400
     46 H46         0.8434    0.1444   50.1453 H       1  ZINC000821177065    0.1600
     47 H47        -3.0470    4.2178   49.5984 H       1  ZINC000821177065    0.1800
     48 H48        -4.4759    3.8326   51.7653 H       1  ZINC000821177065    0.1700
@<TRIPOS>BOND
     1     1     2    2
     2     2     3   am
     3     2    13   am
     4     3     4    1
     5     3    26    1
     6     4     5    1
     7     4    27    1
     8     4    28    1
     9     5     6    1
    10     5     7    1
    11     5    10    1
    12     6    29    1
    13     7     9    1
    14     7     8    1
    15     7    30    1
    16     8     9    1
    17     8    31    1
    18     8    32    1
    19     9    33    1
    20     9    34    1
    21    10    12    1
    22    10    11    1
    23    10    35    1
    24    11    12    1
    25    11    36    1
    26    11    37    1
    27    12    38    1
    28    12    39    1
    29    13    14    1
    30    13    40    1
    31    14    25    1
    32    14    15    2
    33    15    16    1
    34    16    17    1
    35    16    24    1
    36    17    18    1
    37    17    41    1
    38    17    42    1
    39    18    23   ar
    40    18    19   ar
    41    19    20   ar
    42    19    43    1
    43    20    21   ar
    44    20    44    1
    45    21    22   ar
    46    21    45    1
    47    22    23   ar
    48    22    46    1
    49    24    25    2
    50    24    47    1
    51    25    48    1
@<TRIPOS>SUBSTRUCTURE
     1 ZINC000821177065        1 TEMP              0 ****  ****    0 ROOT


##########                                Name:    ZINC000429196987
##########                DOCK_Rotatable_Bonds:                   7
##########                         Heavy_Atoms:                  28
##########                    Molecular_Weight:             403.505
##########                DOCK_Rotatable_Bonds:                   7
##########                       Formal_Charge:          -0.0399997
##########                     HBond_Acceptors:                   9
##########                        HBond_Donors:                   1
##########                         Heavy_Atoms:                  28
##########                          Grid_Score:          -35.836998
##########                     Grid_vdw_energy:          -35.890961
##########                      Grid_es_energy:            0.053961
##########           Internal_energy_repulsive:           14.404733

@<TRIPOS>MOLECULE
ZINC000429196987
 53 55 1 0 0
SMALL
USER_CHARGES


@<TRIPOS>ATOM
      1 C1         -1.2319    3.1419   52.5865 C.3     1  ZINC000429196987    0.0800
      2 N2         -1.9074    3.3412   51.3018 N.am    1  ZINC000429196987   -0.6300
      3 C3         -3.2140    4.0022   51.2561 C.3     1  ZINC000429196987    0.1600
      4 C4         -4.2933    3.0054   51.5911 C.ar    1  ZINC000429196987   -0.0600
      5 C5         -4.6446    2.0326   50.6739 C.ar    1  ZINC000429196987   -0.1300
      6 C6         -5.6347    1.1182   50.9813 C.ar    1  ZINC000429196987   -0.0300
      7 C7         -6.2732    1.1763   52.2060 C.ar    1  ZINC000429196987   -0.6600
      8 S8         -7.5356    0.0110   52.5975 S.o2    1  ZINC000429196987    2.5000
      9 C9         -6.9415   -1.5529   51.8959 C.3     1  ZINC000429196987   -0.6500
     10 O10        -7.5316   -0.0461   54.0173 O.2     1  ZINC000429196987   -0.9400
     11 O11        -8.6745    0.4759   51.8862 O.2     1  ZINC000429196987   -0.9400
     12 C12        -5.9209    2.1481   53.1237 C.ar    1  ZINC000429196987   -0.0300
     13 C13        -4.9282    3.0602   52.8179 C.ar    1  ZINC000429196987   -0.1100
     14 C14        -1.3268    2.9166   50.1621 C.2     1  ZINC000429196987    0.7100
     15 O15        -0.2431    2.3668   50.2002 O.2     1  ZINC000429196987   -0.5800
     16 N16        -1.9475    3.1015   48.9801 N.am    1  ZINC000429196987   -0.7400
     17 C17        -1.3156    2.6415   47.7411 C.3     1  ZINC000429196987    0.1600
     18 C18        -1.3681    1.1125   47.6768 C.3     1  ZINC000429196987   -0.1300
     19 C19        -0.7615    0.6413   46.3531 C.3     1  ZINC000429196987    0.0700
     20 N20        -1.5142    1.2223   45.2341 N.3     1  ZINC000429196987   -0.4700
     21 C21        -1.0727    0.7119   44.0183 C.ar    1  ZINC000429196987    0.2500
     22 C22         0.2148    0.9966   43.5650 C.ar    1  ZINC000429196987   -0.1300
     23 C23         0.6064    0.4638   42.3470 C.ar    1  ZINC000429196987   -0.1000
     24 C24        -0.3059   -0.3193   41.6538 C.ar    1  ZINC000429196987    0.0200
     25 N25        -1.5044   -0.5374   42.1575 N.ar    1  ZINC000429196987   -0.2200
     26 N26        -1.8718   -0.0519   43.2875 N.ar    1  ZINC000429196987   -0.2800
     27 C27        -1.4386    2.6887   45.2478 C.3     1  ZINC000429196987    0.0600
     28 C28        -2.0653    3.2212   46.5384 C.3     1  ZINC000429196987   -0.1200
     29 H29        -1.5288    2.1814   53.0078 H       1  ZINC000429196987    0.0600
     30 H30        -0.1525    3.1542   52.4351 H       1  ZINC000429196987    0.0700
     31 H31        -1.5119    3.9416   53.2721 H       1  ZINC000429196987    0.0800
     32 H32        -3.2345    4.8170   51.9799 H       1  ZINC000429196987    0.1000
     33 H33        -3.3850    4.4004   50.2560 H       1  ZINC000429196987    0.0900
     34 H34        -4.1458    1.9873   49.7171 H       1  ZINC000429196987    0.1300
     35 H35        -5.9097    0.3586   50.2645 H       1  ZINC000429196987    0.1400
     36 H36        -5.9878   -1.8171   52.3530 H       1  ZINC000429196987    0.1300
     37 H37        -7.6695   -2.3395   52.0936 H       1  ZINC000429196987    0.1300
     38 H38        -6.8101   -1.4415   50.8196 H       1  ZINC000429196987    0.1300
     39 H39        -6.4195    2.1933   54.0807 H       1  ZINC000429196987    0.1400
     40 H40        -4.6530    3.8195   53.5349 H       1  ZINC000429196987    0.1400
     41 H41        -2.8127    3.5391   48.9498 H       1  ZINC000429196987    0.4000
     42 H42        -0.2773    2.9726   47.7171 H       1  ZINC000429196987    0.0900
     43 H43        -0.7996    0.6937   48.5072 H       1  ZINC000429196987    0.0800
     44 H44        -2.4044    0.7811   47.7407 H       1  ZINC000429196987    0.0700
     45 H45         0.2788    0.9613   46.2961 H       1  ZINC000429196987    0.0600
     46 H46        -0.8105   -0.4462   46.2980 H       1  ZINC000429196987    0.0900
     47 H47         0.8857    1.6131   44.1447 H       1  ZINC000429196987    0.1500
     48 H48         1.5923    0.6529   41.9486 H       1  ZINC000429196987    0.1500
     49 H49        -0.0340   -0.7499   40.7014 H       1  ZINC000429196987    0.1700
     50 H50        -0.3950    2.9991   45.1958 H       1  ZINC000429196987    0.0500
     51 H51        -1.9793    3.0883   44.3898 H       1  ZINC000429196987    0.0900
     52 H52        -3.1128    2.9228   46.5844 H       1  ZINC000429196987    0.0800
     53 H53        -1.9951    4.3087   46.5554 H       1  ZINC000429196987    0.0800
@<TRIPOS>BOND
     1     1     2    1
     2     1    29    1
     3     1    30    1
     4     1    31    1
     5     2     3    1
     6     2    14   am
     7     3     4    1
     8     3    32    1
     9     3    33    1
    10     4    13   ar
    11     4     5   ar
    12     5     6   ar
    13     5    34    1
    14     6     7   ar
    15     6    35    1
    16     7     8    1
    17     7    12   ar
    18     8     9    1
    19     8    10    2
    20     8    11    2
    21     9    36    1
    22     9    37    1
    23     9    38    1
    24    12    13   ar
    25    12    39    1
    26    13    40    1
    27    14    15    2
    28    14    16   am
    29    16    17    1
    30    16    41    1
    31    17    28    1
    32    17    18    1
    33    17    42    1
    34    18    19    1
    35    18    43    1
    36    18    44    1
    37    19    20    1
    38    19    45    1
    39    19    46    1
    40    20    21    1
    41    20    27    1
    42    21    26   ar
    43    21    22   ar
    44    22    23   ar
    45    22    47    1
    46    23    24   ar
    47    23    48    1
    48    24    25   ar
    49    24    49    1
    50    25    26   ar
    51    27    28    1
    52    27    50    1
    53    27    51    1
    54    28    52    1
    55    28    53    1
@<TRIPOS>SUBSTRUCTURE
     1 ZINC000429196987        1 TEMP              0 ****  ****    0 ROOT


##########                                Name:    ZINC000487792031
##########                DOCK_Rotatable_Bonds:                  12
##########                         Heavy_Atoms:                  29
##########                    Molecular_Weight:             414.569
##########                DOCK_Rotatable_Bonds:                  12
##########                       Formal_Charge:          -0.0100001
##########                     HBond_Acceptors:                   6
##########                        HBond_Donors:                   1
##########                         Heavy_Atoms:                  29
##########                          Grid_Score:          -35.725140
##########                     Grid_vdw_energy:          -34.670937
##########                      Grid_es_energy:           -1.054204
##########           Internal_energy_repulsive:           21.421814

@<TRIPOS>MOLECULE
ZINC000487792031
 59 60 1 0 0
SMALL
USER_CHARGES


@<TRIPOS>ATOM
      1 C1        -10.7507   -1.0175   51.3755 C.2     1  ZINC000487792031   -0.1900
      2 C2        -10.0836    0.0899   51.5867 C.2     1  ZINC000487792031   -0.1500
      3 C3         -8.6731    0.0311   52.1140 C.3     1  ZINC000487792031   -0.0900
      4 C4         -8.3795    1.2933   52.9271 C.3     1  ZINC000487792031   -0.0900
      5 C5         -6.9794    1.1936   53.5360 C.3     1  ZINC000487792031   -0.0700
      6 H6         -6.5286    0.2413   53.2564 H       1  ZINC000487792031    0.1100
      7 C7         -6.1259    2.3237   53.0209 C.2     1  ZINC000487792031    0.5200
      8 O8         -6.5704    3.4516   52.9848 O.2     1  ZINC000487792031   -0.5300
      9 N9         -4.8687    2.0812   52.6001 N.am    1  ZINC000487792031   -0.7200
     10 C10        -4.0396    3.1795   52.0977 C.3     1  ZINC000487792031    0.1500
     11 C11        -3.2639    2.7129   50.8929 C.ar    1  ZINC000487792031   -0.0500
     12 C12        -1.9106    2.9784   50.7969 C.ar    1  ZINC000487792031   -0.1200
     13 C13        -1.1991    2.5504   49.6918 C.ar    1  ZINC000487792031   -0.0200
     14 C14        -1.8406    1.8565   48.6828 C.ar    1  ZINC000487792031   -0.6700
     15 S15        -0.9337    1.3114   47.2739 S.o2    1  ZINC000487792031    2.6900
     16 O16        -1.8069    0.4668   46.5367 O.2     1  ZINC000487792031   -0.9500
     17 O17        -0.3195    2.4671   46.7204 O.2     1  ZINC000487792031   -0.9500
     18 N18         0.2948    0.3473   47.8247 N.am    1  ZINC000487792031   -1.0000
     19 C19        -0.0116   -0.8675   48.5840 C.3     1  ZINC000487792031    0.1200
     20 C20        -0.0781   -2.0620   47.6301 C.3     1  ZINC000487792031   -0.1800
     21 C21         1.6881    0.7092   47.5526 C.3     1  ZINC000487792031    0.1100
     22 C22         2.0053    0.4449   46.0793 C.3     1  ZINC000487792031   -0.1800
     23 C23        -3.1936    1.5899   48.7794 C.ar    1  ZINC000487792031   -0.0200
     24 C24        -3.9044    2.0146   49.8865 C.ar    1  ZINC000487792031   -0.1200
     25 C25        -7.0769    1.2817   55.0372 C.ar    1  ZINC000487792031   -0.0800
     26 C26        -7.9008    0.4132   55.7285 C.ar    1  ZINC000487792031   -0.1100
     27 C27        -7.9903    0.4942   57.1056 C.ar    1  ZINC000487792031   -0.1100
     28 C28        -7.2555    1.4432   57.7914 C.ar    1  ZINC000487792031   -0.1200
     29 C29        -6.4309    2.3111   57.1002 C.ar    1  ZINC000487792031   -0.1200
     30 C30        -6.3382    2.2273   55.7234 C.ar    1  ZINC000487792031   -0.1100
     31 H31       -11.7616   -0.9753   50.9976 H       1  ZINC000487792031    0.1000
     32 H32       -10.2883   -1.9729   51.5752 H       1  ZINC000487792031    0.1000
     33 H33       -10.5445    1.0452   51.3830 H       1  ZINC000487792031    0.1100
     34 H34        -8.5596   -0.8461   52.7510 H       1  ZINC000487792031    0.0700
     35 H35        -7.9754   -0.0337   51.2789 H       1  ZINC000487792031    0.0700
     36 H36        -8.4309    2.1656   52.2754 H       1  ZINC000487792031    0.0800
     37 H37        -9.1162    1.3915   53.7244 H       1  ZINC000487792031    0.0700
     38 H38        -4.5128    1.1794   52.6300 H       1  ZINC000487792031    0.4000
     39 H39        -4.6779    4.0174   51.8168 H       1  ZINC000487792031    0.0800
     40 H40        -3.3458    3.4965   52.8763 H       1  ZINC000487792031    0.0800
     41 H41        -1.4094    3.5203   51.5852 H       1  ZINC000487792031    0.1400
     42 H42        -0.1420    2.7582   49.6165 H       1  ZINC000487792031    0.1400
     43 H43         0.7680   -1.0384   49.3263 H       1  ZINC000487792031    0.0800
     44 H44        -0.9718   -0.7497   49.0861 H       1  ZINC000487792031    0.0800
     45 H45        -0.8577   -1.8912   46.8878 H       1  ZINC000487792031    0.0600
     46 H46         0.8821   -2.1799   47.1280 H       1  ZINC000487792031    0.0600
     47 H47        -0.3061   -2.9658   48.1950 H       1  ZINC000487792031    0.0700
     48 H48         1.8386    1.7661   47.7726 H       1  ZINC000487792031    0.0900
     49 H49         2.3483    0.1100   48.1796 H       1  ZINC000487792031    0.0900
     50 H50         1.8548   -0.6121   45.8593 H       1  ZINC000487792031    0.0600
     51 H51         1.3451    1.0441   45.4523 H       1  ZINC000487792031    0.0600
     52 H52         3.0419    0.7142   45.8769 H       1  ZINC000487792031    0.0700
     53 H53        -3.6948    1.0476   47.9914 H       1  ZINC000487792031    0.1400
     54 H54        -4.9615    1.8063   49.9619 H       1  ZINC000487792031    0.1400
     55 H55        -8.4749   -0.3281   55.1926 H       1  ZINC000487792031    0.1200
     56 H56        -8.6345   -0.1838   57.6456 H       1  ZINC000487792031    0.1200
     57 H57        -7.3259    1.5069   58.8672 H       1  ZINC000487792031    0.1200
     58 H58        -5.8571    3.0527   57.6359 H       1  ZINC000487792031    0.1200
     59 H59        -5.6939    2.9054   55.1834 H       1  ZINC000487792031    0.1200
@<TRIPOS>BOND
     1     1     2    2
     2     1    31    1
     3     1    32    1
     4     2     3    1
     5     2    33    1
     6     3     4    1
     7     3    34    1
     8     3    35    1
     9     4     5    1
    10     4    36    1
    11     4    37    1
    12     5     6    1
    13     5     7    1
    14     5    25    1
    15     7     8    2
    16     7     9   am
    17     9    10    1
    18     9    38    1
    19    10    11    1
    20    10    39    1
    21    10    40    1
    22    11    24   ar
    23    11    12   ar
    24    12    13   ar
    25    12    41    1
    26    13    14   ar
    27    13    42    1
    28    14    15    1
    29    14    23   ar
    30    15    16    2
    31    15    17    2
    32    15    18   am
    33    18    19    1
    34    18    21    1
    35    19    20    1
    36    19    43    1
    37    19    44    1
    38    20    45    1
    39    20    46    1
    40    20    47    1
    41    21    22    1
    42    21    48    1
    43    21    49    1
    44    22    50    1
    45    22    51    1
    46    22    52    1
    47    23    24   ar
    48    23    53    1
    49    24    54    1
    50    25    30   ar
    51    25    26   ar
    52    26    27   ar
    53    26    55    1
    54    27    28   ar
    55    27    56    1
    56    28    29   ar
    57    28    57    1
    58    29    30   ar
    59    29    58    1
    60    30    59    1
@<TRIPOS>SUBSTRUCTURE
     1 ZINC000487792031        1 TEMP              0 ****  ****    0 ROOT


##########                                Name:    ZINC000474251633
##########                DOCK_Rotatable_Bonds:                   8
##########                         Heavy_Atoms:                  28
##########                    Molecular_Weight:             416.931
##########                DOCK_Rotatable_Bonds:                   8
##########                       Formal_Charge:          0.00999953
##########                     HBond_Acceptors:                   8
##########                        HBond_Donors:                   2
##########                         Heavy_Atoms:                  28
##########                          Grid_Score:          -35.702206
##########                     Grid_vdw_energy:          -35.228184
##########                      Grid_es_energy:           -0.474021
##########           Internal_energy_repulsive:            7.988255

@<TRIPOS>MOLECULE
ZINC000474251633
 49 52 1 0 0
SMALL
USER_CHARGES


@<TRIPOS>ATOM
      1 O1         -7.9916   -0.9692   50.5933 O.2     1  ZINC000474251633   -0.5300
      2 C2         -8.0485   -0.8129   51.7947 C.2     1  ZINC000474251633    0.5100
      3 C3         -9.3870   -0.7591   52.4849 C.3     1  ZINC000474251633    0.1000
      4 N4         -9.2154   -1.0633   53.9077 N.am    1  ZINC000474251633   -0.7100
      5 C5        -10.2763   -1.0244   54.7379 C.2     1  ZINC000474251633    0.5900
      6 O6        -11.3770   -0.7383   54.3055 O.2     1  ZINC000474251633   -0.5000
      7 C7        -10.1039   -1.3276   56.1642 C.2     1  ZINC000474251633   -0.2300
      8 C8         -9.3732   -0.5969   57.0146 C.2     1  ZINC000474251633    0.0400
      9 Cl9        -8.5235    0.8320   56.5142 Cl      1  ZINC000474251633   -0.0100
     10 C10        -9.3401   -1.0634   58.3400 C.ar    1  ZINC000474251633   -0.0900
     11 C11        -8.6650   -0.5166   59.4568 C.ar    1  ZINC000474251633   -0.0600
     12 C12        -8.7506   -1.1138   60.6752 C.ar    1  ZINC000474251633   -0.1200
     13 C13        -9.5012   -2.2701   60.8469 C.ar    1  ZINC000474251633   -0.0800
     14 C14       -10.1680   -2.8255   59.7812 C.ar    1  ZINC000474251633   -0.0900
     15 C15       -10.0956   -2.2292   58.5182 C.ar    1  ZINC000474251633   -0.1200
     16 S16       -10.8335   -2.6935   56.9895 S.3     1  ZINC000474251633    0.1700
     17 N17        -6.9145   -0.6928   52.5132 N.am    1  ZINC000474251633   -0.7200
     18 C18        -5.6133   -0.7451   51.8421 C.3     1  ZINC000474251633    0.2100
     19 C19        -5.1471    0.6559   51.5402 C.2     1  ZINC000474251633    0.0500
     20 N20        -4.3697    1.0088   50.5490 N.2     1  ZINC000474251633   -0.2700
     21 N21        -4.1744    2.3943   50.6178 N.pl3   1  ZINC000474251633   -0.3600
     22 C22        -3.3674    3.1978   49.6961 C.3     1  ZINC000474251633    0.1500
     23 C23        -1.8979    3.2231   50.1648 C.3     1  ZINC000474251633   -0.1400
     24 C24        -1.2191    2.0957   49.3479 C.3     1  ZINC000474251633   -0.1300
     25 C25        -1.9043    2.2164   47.9641 C.3     1  ZINC000474251633   -0.1200
     26 C26        -3.3714    2.5577   48.2968 C.3     1  ZINC000474251633   -0.1400
     27 C27        -4.8608    2.8581   51.6830 C.2     1  ZINC000474251633    0.0600
     28 C28        -5.4761    1.8043   52.2679 C.2     1  ZINC000474251633   -0.2600
     29 H29        -9.8126    0.2385   52.3755 H       1  ZINC000474251633    0.1100
     30 H30       -10.0575   -1.4915   52.0352 H       1  ZINC000474251633    0.1100
     31 H31        -8.3380   -1.2925   54.2522 H       1  ZINC000474251633    0.4100
     32 H32        -8.0769    0.3818   59.3404 H       1  ZINC000474251633    0.1300
     33 H33        -8.2294   -0.6850   61.5184 H       1  ZINC000474251633    0.1400
     34 H34        -9.5605   -2.7341   61.8203 H       1  ZINC000474251633    0.1400
     35 H35       -10.7497   -3.7249   59.9195 H       1  ZINC000474251633    0.1400
     36 H36        -6.9600   -0.5717   53.4745 H       1  ZINC000474251633    0.4100
     37 H37        -4.8891   -1.2369   52.4915 H       1  ZINC000474251633    0.0900
     38 H38        -5.7065   -1.3053   50.9117 H       1  ZINC000474251633    0.0900
     39 H39        -3.7608    4.2129   49.6435 H       1  ZINC000474251633    0.1100
     40 H40        -1.4415    4.1866   49.9377 H       1  ZINC000474251633    0.0900
     41 H41        -1.8343    3.0120   51.2323 H       1  ZINC000474251633    0.0800
     42 H42        -0.1466    2.2712   49.2646 H       1  ZINC000474251633    0.0800
     43 H43        -1.4188    1.1215   49.7941 H       1  ZINC000474251633    0.0700
     44 H44        -1.4490    3.0172   47.3815 H       1  ZINC000474251633    0.0700
     45 H45        -1.8454    1.2706   47.4254 H       1  ZINC000474251633    0.0700
     46 H46        -3.9739    1.6493   48.3035 H       1  ZINC000474251633    0.0700
     47 H47        -3.7661    3.2625   47.5650 H       1  ZINC000474251633    0.0800
     48 H48        -4.9134    3.8868   52.0079 H       1  ZINC000474251633    0.1700
     49 H49        -6.1048    1.8423   53.1451 H       1  ZINC000474251633    0.1500
@<TRIPOS>BOND
     1     1     2    2
     2     2     3    1
     3     2    17   am
     4     3     4    1
     5     3    29    1
     6     3    30    1
     7     4     5   am
     8     4    31    1
     9     5     6    2
    10     5     7    1
    11     7    16    1
    12     7     8    2
    13     8     9    1
    14     8    10    1
    15    10    15   ar
    16    10    11   ar
    17    11    12   ar
    18    11    32    1
    19    12    13   ar
    20    12    33    1
    21    13    14   ar
    22    13    34    1
    23    14    15   ar
    24    14    35    1
    25    15    16    1
    26    17    18    1
    27    17    36    1
    28    18    19    1
    29    18    37    1
    30    18    38    1
    31    19    28    1
    32    19    20    2
    33    20    21    1
    34    21    22    1
    35    21    27    1
    36    22    26    1
    37    22    23    1
    38    22    39    1
    39    23    24    1
    40    23    40    1
    41    23    41    1
    42    24    25    1
    43    24    42    1
    44    24    43    1
    45    25    26    1
    46    25    44    1
    47    25    45    1
    48    26    46    1
    49    26    47    1
    50    27    28    2
    51    27    48    1
    52    28    49    1
@<TRIPOS>SUBSTRUCTURE
     1 ZINC000474251633        1 TEMP              0 ****  ****    0 ROOT


##########                                Name:    ZINC000552360217
##########                DOCK_Rotatable_Bonds:                  13
##########                         Heavy_Atoms:                  27
##########                    Molecular_Weight:             401.484
##########                DOCK_Rotatable_Bonds:                  13
##########                       Formal_Charge:          -0.0100002
##########                     HBond_Acceptors:                  10
##########                        HBond_Donors:                   3
##########                         Heavy_Atoms:                  27
##########                          Grid_Score:          -35.687691
##########                     Grid_vdw_energy:          -36.364197
##########                      Grid_es_energy:            0.676505
##########           Internal_energy_repulsive:           17.795666

@<TRIPOS>MOLECULE
ZINC000552360217
 54 54 1 0 0
SMALL
USER_CHARGES


@<TRIPOS>ATOM
      1 C1        -10.1349    1.0848   51.4314 C.3     1  ZINC000552360217    0.0800
      2 N2         -9.4720   -0.1703   51.7944 N.am    1  ZINC000552360217   -1.0000
      3 C3        -10.2384   -1.2474   52.4257 C.3     1  ZINC000552360217    0.0900
      4 S4         -7.8566   -0.3714   51.4908 S.o2    1  ZINC000552360217    2.7000
      5 O5         -7.4873   -1.6076   52.0864 O.2     1  ZINC000552360217   -0.9500
      6 O6         -7.6690   -0.0865   50.1113 O.2     1  ZINC000552360217   -0.9500
      7 C7         -6.9986    0.8850   52.3794 C.ar    1  ZINC000552360217   -0.6900
      8 C8         -7.5412    1.4006   53.5428 C.ar    1  ZINC000552360217    0.0100
      9 C9         -6.8736    2.3873   54.2470 C.ar    1  ZINC000552360217   -0.1400
     10 C10        -5.6614    2.8631   53.7923 C.ar    1  ZINC000552360217   -0.0300
     11 C11        -5.1082    2.3471   52.6191 C.ar    1  ZINC000552360217   -0.1600
     12 C12        -3.8091    2.8522   52.1262 C.2     1  ZINC000552360217    0.5600
     13 O13        -2.9172    3.1047   52.9125 O.2     1  ZINC000552360217   -0.5300
     14 N14        -3.6137    3.0327   50.8050 N.am    1  ZINC000552360217   -0.7100
     15 C15        -2.3258    3.5315   50.3163 C.3     1  ZINC000552360217    0.1000
     16 C16        -1.3413    2.3928   50.2427 C.2     1  ZINC000552360217    0.5100
     17 O17        -0.5792    2.1896   51.1640 O.2     1  ZINC000552360217   -0.5400
     18 N18        -1.3076    1.6005   49.1529 N.am    1  ZINC000552360217   -0.7200
     19 C19        -0.3516    0.4926   49.0820 C.3     1  ZINC000552360217    0.1400
     20 C20         0.1093    0.3086   47.6348 C.3     1  ZINC000552360217    0.1000
     21 C21         0.8697    1.5557   47.1793 C.3     1  ZINC000552360217   -0.1800
     22 C22         1.0285   -0.9110   47.5434 C.3     1  ZINC000552360217   -0.1800
     23 O23        -1.0290    0.1112   46.7938 O.3     1  ZINC000552360217   -0.3700
     24 C24        -0.7646    0.3044   45.4028 C.3     1  ZINC000552360217    0.0600
     25 C25        -2.0031   -0.0782   44.5902 C.3     1  ZINC000552360217    0.0800
     26 O26        -1.7647    0.1854   43.2061 O.3     1  ZINC000552360217   -0.5700
     27 C27        -5.7842    1.3485   51.9165 C.ar    1  ZINC000552360217    0.0400
     28 H28       -10.0772    1.7813   52.2679 H       1  ZINC000552360217    0.0600
     29 H29        -9.6402    1.5189   50.5625 H       1  ZINC000552360217    0.0900
     30 H30       -11.1803    0.8881   51.1938 H       1  ZINC000552360217    0.0800
     31 H31       -11.2757   -0.9342   52.5441 H       1  ZINC000552360217    0.0800
     32 H32       -10.1972   -2.1383   51.7991 H       1  ZINC000552360217    0.0700
     33 H33        -9.8126   -1.4712   53.4038 H       1  ZINC000552360217    0.0600
     34 H34        -8.4903    1.0317   53.9030 H       1  ZINC000552360217    0.1500
     35 H35        -7.3029    2.7858   55.1543 H       1  ZINC000552360217    0.1400
     36 H36        -5.1415    3.6334   54.3426 H       1  ZINC000552360217    0.1400
     37 H37        -4.3258    2.8323   50.1775 H       1  ZINC000552360217    0.4100
     38 H38        -2.4563    3.9636   49.3241 H       1  ZINC000552360217    0.1000
     39 H39        -1.9491    4.2940   50.9981 H       1  ZINC000552360217    0.1000
     40 H40        -1.9162    1.7639   48.4155 H       1  ZINC000552360217    0.4100
     41 H41         0.5095    0.7149   49.7122 H       1  ZINC000552360217    0.0800
     42 H42        -0.8301   -0.4228   49.4302 H       1  ZINC000552360217    0.0900
     43 H43         1.7380    1.7062   47.8208 H       1  ZINC000552360217    0.0700
     44 H44         1.1981    1.4246   46.1482 H       1  ZINC000552360217    0.0700
     45 H45         0.2149    2.4246   47.2444 H       1  ZINC000552360217    0.0700
     46 H46         0.4868   -1.7995   47.8679 H       1  ZINC000552360217    0.0600
     47 H47         1.3569   -1.0421   46.5123 H       1  ZINC000552360217    0.0700
     48 H48         1.8968   -0.7604   48.1849 H       1  ZINC000552360217    0.0700
     49 H49        -0.5200    1.3511   45.2214 H       1  ZINC000552360217    0.0600
     50 H50         0.0751   -0.3223   45.1021 H       1  ZINC000552360217    0.0700
     51 H51        -2.2140   -1.1388   44.7270 H       1  ZINC000552360217    0.0600
     52 H52        -2.8563    0.5087   44.9301 H       1  ZINC000552360217    0.0500
     53 H53        -2.5194   -0.0081   42.6332 H       1  ZINC000552360217    0.3800
     54 H54        -5.3616    0.9452   51.0082 H       1  ZINC000552360217    0.1500
@<TRIPOS>BOND
     1     1     2    1
     2     1    28    1
     3     1    29    1
     4     1    30    1
     5     2     3    1
     6     2     4   am
     7     3    31    1
     8     3    32    1
     9     3    33    1
    10     4     5    2
    11     4     6    2
    12     4     7    1
    13     7    27   ar
    14     7     8   ar
    15     8     9   ar
    16     8    34    1
    17     9    10   ar
    18     9    35    1
    19    10    11   ar
    20    10    36    1
    21    11    12    1
    22    11    27   ar
    23    12    13    2
    24    12    14   am
    25    14    15    1
    26    14    37    1
    27    15    16    1
    28    15    38    1
    29    15    39    1
    30    16    17    2
    31    16    18   am
    32    18    19    1
    33    18    40    1
    34    19    20    1
    35    19    41    1
    36    19    42    1
    37    20    21    1
    38    20    22    1
    39    20    23    1
    40    21    43    1
    41    21    44    1
    42    21    45    1
    43    22    46    1
    44    22    47    1
    45    22    48    1
    46    23    24    1
    47    24    25    1
    48    24    49    1
    49    24    50    1
    50    25    26    1
    51    25    51    1
    52    25    52    1
    53    26    53    1
    54    27    54    1
@<TRIPOS>SUBSTRUCTURE
     1 ZINC000552360217        1 TEMP              0 ****  ****    0 ROOT


##########                                Name:    ZINC000174621331
##########                DOCK_Rotatable_Bonds:                   8
##########                         Heavy_Atoms:                  25
##########                    Molecular_Weight:             366.438
##########                DOCK_Rotatable_Bonds:                   8
##########                       Formal_Charge:        -5.96046e-08
##########                     HBond_Acceptors:                   8
##########                        HBond_Donors:                   3
##########                         Heavy_Atoms:                  25
##########                          Grid_Score:          -35.647804
##########                     Grid_vdw_energy:          -35.033398
##########                      Grid_es_energy:           -0.614407
##########           Internal_energy_repulsive:           13.148482

@<TRIPOS>MOLECULE
ZINC000174621331
 47 48 1 0 0
SMALL
USER_CHARGES


@<TRIPOS>ATOM
      1 C1         -2.1559    2.5277   45.0069 C.3     1  ZINC000174621331    0.0300
      2 O2         -1.8287    2.3118   46.3811 O.3     1  ZINC000174621331   -0.3800
      3 C3         -2.9348    2.4644   47.2729 C.3     1  ZINC000174621331    0.0500
      4 C4         -2.4706    2.2130   48.7089 C.3     1  ZINC000174621331    0.2400
      5 H5         -1.9204    3.0818   49.0703 H       1  ZINC000174621331    0.1300
      6 N6         -3.6364    1.9823   49.5657 N.am    1  ZINC000174621331   -0.7200
      7 C7         -3.5608    2.2320   50.8880 C.2     1  ZINC000174621331    0.5600
      8 O8         -2.5250    2.6472   51.3698 O.2     1  ZINC000174621331   -0.5300
      9 C9         -4.7377    2.0008   51.7524 C.ar    1  ZINC000174621331   -0.1600
     10 C10        -4.9289    2.7749   52.8978 C.ar    1  ZINC000174621331   -0.0200
     11 C11        -6.0296    2.5543   53.7000 C.ar    1  ZINC000174621331   -0.1100
     12 C12        -6.2377    3.3891   54.9372 C.3     1  ZINC000174621331   -0.1200
     13 C13        -6.9429    1.5688   53.3707 C.ar    1  ZINC000174621331    0.0400
     14 C14        -8.1432    1.3338   54.2513 C.3     1  ZINC000174621331   -0.1600
     15 C15        -6.7595    0.7980   52.2361 C.ar    1  ZINC000174621331   -0.6800
     16 S16        -7.9292   -0.4542   51.8256 S.o2    1  ZINC000174621331    2.7000
     17 N17        -7.4855   -1.0768   50.3566 N.am    1  ZINC000174621331   -1.2500
     18 O18        -7.7502   -1.4970   52.7741 O.2     1  ZINC000174621331   -0.9500
     19 O19        -9.1704    0.2072   51.6228 O.2     1  ZINC000174621331   -0.9600
     20 C20        -5.6657    1.0112   51.4233 C.ar    1  ZINC000174621331    0.0400
     21 C21        -1.5749    1.0015   48.7425 C.2     1  ZINC000174621331   -0.0200
     22 C22        -0.5284    0.8195   49.5678 C.2     1  ZINC000174621331   -0.1900
     23 C23         0.0227   -0.4450   49.2578 C.2     1  ZINC000174621331   -0.2100
     24 C24        -0.7200   -0.9602   48.2615 C.2     1  ZINC000174621331    0.0000
     25 C25        -0.5049   -2.2986   47.6033 C.3     1  ZINC000174621331   -0.0800
     26 O26        -1.6898   -0.0822   47.9575 O.3     1  ZINC000174621331   -0.1600
     27 H27        -2.9188    1.8128   44.6984 H       1  ZINC000174621331    0.0400
     28 H28        -2.5350    3.5416   44.8786 H       1  ZINC000174621331    0.0400
     29 H29        -1.2636    2.3933   44.3955 H       1  ZINC000174621331    0.0900
     30 H30        -3.3306    3.4766   47.1909 H       1  ZINC000174621331    0.0700
     31 H31        -3.7134    1.7475   47.0120 H       1  ZINC000174621331    0.0700
     32 H32        -4.4626    1.6498   49.1814 H       1  ZINC000174621331    0.4100
     33 H33        -4.2166    3.5445   53.1559 H       1  ZINC000174621331    0.1400
     34 H34        -6.8254    4.2719   54.6853 H       1  ZINC000174621331    0.0800
     35 H35        -6.7676    2.8017   55.6871 H       1  ZINC000174621331    0.0800
     36 H36        -5.2706    3.6976   55.3342 H       1  ZINC000174621331    0.0700
     37 H37        -8.9697    1.9590   53.9133 H       1  ZINC000174621331    0.1100
     38 H38        -8.4346    0.2849   54.1960 H       1  ZINC000174621331    0.0700
     39 H39        -7.8932    1.5877   55.2814 H       1  ZINC000174621331    0.0900
     40 H40        -6.6150   -1.4905   50.2481 H       1  ZINC000174621331    0.4200
     41 H41        -8.0962   -1.0277   49.6046 H       1  ZINC000174621331    0.4200
     42 H42        -5.5239    0.4093   50.5378 H       1  ZINC000174621331    0.1600
     43 H43        -0.1765    1.5076   50.3221 H       1  ZINC000174621331    0.1500
     44 H44         0.8764   -0.9083   49.7299 H       1  ZINC000174621331    0.1500
     45 H45        -1.0743   -3.0608   48.1351 H       1  ZINC000174621331    0.0800
     46 H46        -0.8396   -2.2519   46.5671 H       1  ZINC000174621331    0.0800
     47 H47         0.5551   -2.5513   47.6316 H       1  ZINC000174621331    0.0900
@<TRIPOS>BOND
     1     1     2    1
     2     1    27    1
     3     1    28    1
     4     1    29    1
     5     2     3    1
     6     3     4    1
     7     3    30    1
     8     3    31    1
     9     4     5    1
    10     4     6    1
    11     4    21    1
    12     6     7   am
    13     6    32    1
    14     7     8    2
    15     7     9    1
    16     9    20   ar
    17     9    10   ar
    18    10    11   ar
    19    10    33    1
    20    11    12    1
    21    11    13   ar
    22    12    34    1
    23    12    35    1
    24    12    36    1
    25    13    14    1
    26    13    15   ar
    27    14    37    1
    28    14    38    1
    29    14    39    1
    30    15    16    1
    31    15    20   ar
    32    16    17   am
    33    16    18    2
    34    16    19    2
    35    17    40    1
    36    17    41    1
    37    20    42    1
    38    21    26    1
    39    21    22    2
    40    22    23    1
    41    22    43    1
    42    23    24    2
    43    23    44    1
    44    24    25    1
    45    24    26    1
    46    25    45    1
    47    25    46    1
    48    25    47    1
@<TRIPOS>SUBSTRUCTURE
     1 ZINC000174621331        1 TEMP              0 ****  ****    0 ROOT


##########                                Name:    ZINC000767361237
##########                DOCK_Rotatable_Bonds:                  10
##########                         Heavy_Atoms:                  30
##########                    Molecular_Weight:             409.439
##########                DOCK_Rotatable_Bonds:                  10
##########                       Formal_Charge:          -0.0300005
##########                     HBond_Acceptors:                   7
##########                        HBond_Donors:                   1
##########                         Heavy_Atoms:                  30
##########                          Grid_Score:          -35.604435
##########                     Grid_vdw_energy:          -35.387787
##########                      Grid_es_energy:           -0.216647
##########           Internal_energy_repulsive:           17.933739

@<TRIPOS>MOLECULE
ZINC000767361237
 53 55 1 0 0
SMALL
USER_CHARGES


@<TRIPOS>ATOM
      1 C1         -8.0318    0.3985   58.4395 C.3     1  ZINC000767361237   -0.1200
      2 C2         -8.4097    0.4839   56.9831 C.ar    1  ZINC000767361237   -0.0900
      3 C3         -7.7608    1.3778   56.1519 C.ar    1  ZINC000767361237   -0.1200
      4 C4         -8.1075    1.4562   54.8160 C.ar    1  ZINC000767361237   -0.1100
      5 C5         -9.1028    0.6405   54.3112 C.ar    1  ZINC000767361237   -0.0800
      6 C6         -9.4810    0.7263   52.8550 C.3     1  ZINC000767361237   -0.0800
      7 H7         -9.1126    1.6638   52.4386 H       1  ZINC000767361237    0.0900
      8 C8        -11.0040    0.6717   52.7197 C.3     1  ZINC000767361237   -0.1500
      9 C9         -8.8592   -0.4480   52.0965 C.3     1  ZINC000767361237    0.1300
     10 H10        -9.2960   -0.5088   51.0996 H       1  ZINC000767361237    0.1400
     11 O11        -9.1169   -1.6623   52.8043 O.3     1  ZINC000767361237   -0.5200
     12 C12        -7.3711   -0.2399   51.9811 C.2     1  ZINC000767361237    0.4300
     13 O13        -6.6295   -1.1928   51.9367 O.2     1  ZINC000767361237   -0.5000
     14 O14        -6.8695    1.0041   51.9275 O.3     1  ZINC000767361237   -0.3300
     15 C15        -5.4505    1.1311   51.6470 C.3     1  ZINC000767361237    0.0100
     16 C16        -4.9895    2.5197   52.0080 C.2     1  ZINC000767361237    0.3700
     17 O17        -5.8003    3.3900   52.2164 O.2     1  ZINC000767361237   -0.4200
     18 C18        -3.5166    2.8222   52.1089 C.3     1  ZINC000767361237   -0.1800
     19 C19        -3.0017    3.3081   50.7525 C.3     1  ZINC000767361237    0.1200
     20 N20        -2.2886    2.2182   50.0819 N.am    1  ZINC000767361237   -0.5800
     21 C21        -2.7531    1.5503   49.0106 C.2     1  ZINC000767361237    0.5700
     22 O22        -3.8138    1.7522   48.4545 O.2     1  ZINC000767361237   -0.4600
     23 C23        -1.7562    0.5301   48.6228 C.ar    1  ZINC000767361237   -0.1400
     24 C24        -1.6899   -0.4272   47.6237 C.ar    1  ZINC000767361237   -0.0400
     25 C25        -0.5787   -1.2517   47.5345 C.ar    1  ZINC000767361237   -0.0900
     26 C26         0.4618   -1.1247   48.4349 C.ar    1  ZINC000767361237   -0.0900
     27 C27         0.4092   -0.1712   49.4401 C.ar    1  ZINC000767361237   -0.0400
     28 C28        -0.6947    0.6596   49.5415 C.ar    1  ZINC000767361237   -0.1400
     29 C29        -1.0804    1.7573   50.4530 C.2     1  ZINC000767361237    0.5700
     30 O30        -0.4183    2.1726   51.3827 O.2     1  ZINC000767361237   -0.4600
     31 C31        -9.7507   -0.2544   55.1421 C.ar    1  ZINC000767361237   -0.1100
     32 C32        -9.4014   -0.3355   56.4771 C.ar    1  ZINC000767361237   -0.1200
     33 H33        -7.2363   -0.3359   58.5659 H       1  ZINC000767361237    0.0700
     34 H34        -7.6844    1.3731   58.7825 H       1  ZINC000767361237    0.0700
     35 H35        -8.9012    0.0964   59.0233 H       1  ZINC000767361237    0.0700
     36 H36        -6.9832    2.0151   56.5464 H       1  ZINC000767361237    0.1200
     37 H37        -7.6010    2.1551   54.1669 H       1  ZINC000767361237    0.1200
     38 H38       -11.2776    0.7338   51.6664 H       1  ZINC000767361237    0.0800
     39 H39       -11.3725   -0.2659   53.1362 H       1  ZINC000767361237    0.0700
     40 H40       -11.4471    1.5083   53.2601 H       1  ZINC000767361237    0.0600
     41 H41        -8.7443   -1.6842   53.6964 H       1  ZINC000767361237    0.3900
     42 H42        -4.8968    0.3998   52.2358 H       1  ZINC000767361237    0.1100
     43 H43        -5.2726    0.9535   50.5863 H       1  ZINC000767361237    0.1100
     44 H44        -3.3555    3.5976   52.8577 H       1  ZINC000767361237    0.1100
     45 H45        -2.9794    1.9193   52.3992 H       1  ZINC000767361237    0.1100
     46 H46        -3.8434    3.6247   50.1365 H       1  ZINC000767361237    0.1100
     47 H47        -2.3238    4.1486   50.9011 H       1  ZINC000767361237    0.1100
     48 H48        -2.5003   -0.5309   46.9175 H       1  ZINC000767361237    0.1400
     49 H49        -0.5262   -1.9984   46.7561 H       1  ZINC000767361237    0.1400
     50 H50         1.3219   -1.7731   48.3554 H       1  ZINC000767361237    0.1400
     51 H51         1.2256   -0.0763   50.1408 H       1  ZINC000767361237    0.1400
     52 H52       -10.5280   -0.8920   54.7476 H       1  ZINC000767361237    0.1200
     53 H53        -9.9076   -1.0346   57.1263 H       1  ZINC000767361237    0.1200
@<TRIPOS>BOND
     1     1     2    1
     2     1    33    1
     3     1    34    1
     4     1    35    1
     5     2    32   ar
     6     2     3   ar
     7     3     4   ar
     8     3    36    1
     9     4     5   ar
    10     4    37    1
    11     5     6    1
    12     5    31   ar
    13     6     7    1
    14     6     8    1
    15     6     9    1
    16     8    38    1
    17     8    39    1
    18     8    40    1
    19     9    10    1
    20     9    11    1
    21     9    12    1
    22    11    41    1
    23    12    13    2
    24    12    14    1
    25    14    15    1
    26    15    16    1
    27    15    42    1
    28    15    43    1
    29    16    17    2
    30    16    18    1
    31    18    19    1
    32    18    44    1
    33    18    45    1
    34    19    20    1
    35    19    46    1
    36    19    47    1
    37    20    29   am
    38    20    21   am
    39    21    22    2
    40    21    23    1
    41    23    28   ar
    42    23    24   ar
    43    24    25   ar
    44    24    48    1
    45    25    26   ar
    46    25    49    1
    47    26    27   ar
    48    26    50    1
    49    27    28   ar
    50    27    51    1
    51    28    29    1
    52    29    30    2
    53    31    32   ar
    54    31    52    1
    55    32    53    1
@<TRIPOS>SUBSTRUCTURE
     1 ZINC000767361237        1 TEMP              0 ****  ****    0 ROOT


##########                                Name:    ZINC000562561773
##########                DOCK_Rotatable_Bonds:                   6
##########                         Heavy_Atoms:                  26
##########                    Molecular_Weight:             371.466
##########                DOCK_Rotatable_Bonds:                   6
##########                       Formal_Charge:           0.0199999
##########                     HBond_Acceptors:                   9
##########                        HBond_Donors:                   0
##########                         Heavy_Atoms:                  26
##########                          Grid_Score:          -35.539635
##########                     Grid_vdw_energy:          -34.486683
##########                      Grid_es_energy:           -1.052951
##########           Internal_energy_repulsive:            9.186921

@<TRIPOS>MOLECULE
ZINC000562561773
 47 50 1 0 0
SMALL
USER_CHARGES


@<TRIPOS>ATOM
      1 C1         -0.0824    1.8565   44.2754 C.3     1  ZINC000562561773   -0.1100
      2 C2         -0.8065    2.2574   45.5349 C.ar    1  ZINC000562561773   -0.0400
      3 C3         -1.3857    3.5084   45.6282 C.ar    1  ZINC000562561773   -0.1200
      4 C4         -2.0505    3.8818   46.7795 C.ar    1  ZINC000562561773   -0.0700
      5 C5         -2.1392    2.9966   47.8519 C.ar    1  ZINC000562561773   -0.0300
      6 C6         -2.8539    3.3967   49.0897 C.2     1  ZINC000562561773    0.2200
      7 N7         -3.6446    4.4285   49.2304 N.2     1  ZINC000562561773   -0.3700
      8 O8         -4.0701    4.4759   50.3652 O.3     1  ZINC000562561773    0.0900
      9 C9         -3.5833    3.4563   51.0796 C.2     1  ZINC000562561773    0.1900
     10 C10        -3.8716    3.1606   52.5288 C.3     1  ZINC000562561773   -0.0100
     11 C11        -5.3198    2.6895   52.6750 C.3     1  ZINC000562561773   -0.1200
     12 S12        -5.5283    1.1063   51.8226 S.3     1  ZINC000562561773    0.0600
     13 C13        -7.2216    0.7832   52.1871 C.2     1  ZINC000562561773    0.2100
     14 N14        -8.0036    1.4985   52.9665 N.2     1  ZINC000562561773   -0.3300
     15 N15        -9.1799    0.9856   53.0159 N.2     1  ZINC000562561773   -0.0300
     16 N16        -9.2372   -0.0755   52.2861 N.2     1  ZINC000562561773   -0.0700
     17 N17        -7.9645   -0.2448   51.7133 N.pl3   1  ZINC000562561773   -0.3600
     18 C18        -7.5322   -1.3103   50.8056 C.3     1  ZINC000562561773    0.0800
     19 N19        -2.8140    2.7588   50.2814 N.2     1  ZINC000562561773   -0.4600
     20 C20        -1.5560    1.7357   47.7592 C.ar    1  ZINC000562561773   -0.1100
     21 C21        -0.8948    1.3658   46.5975 C.ar    1  ZINC000562561773    0.0800
     22 N22        -0.3085    0.1016   46.4995 N.3     1  ZINC000562561773   -0.4800
     23 C23         0.7272   -0.0874   47.5473 C.3     1  ZINC000562561773    0.0400
     24 C24         0.8694   -1.6280   47.6315 C.3     1  ZINC000562561773   -0.1200
     25 C25        -0.5834   -2.1202   47.4393 C.3     1  ZINC000562561773   -0.1300
     26 C26        -1.3082   -0.9652   46.7237 C.3     1  ZINC000562561773    0.0400
     27 H27        -0.7847    1.3872   43.5864 H       1  ZINC000562561773    0.0700
     28 H28         0.3497    2.7410   43.8074 H       1  ZINC000562561773    0.0600
     29 H29         0.7113    1.1511   44.5216 H       1  ZINC000562561773    0.0800
     30 H30        -1.3179    4.1963   44.7983 H       1  ZINC000562561773    0.1400
     31 H31        -2.5016    4.8607   46.8487 H       1  ZINC000562561773    0.1400
     32 H32        -3.1980    2.3795   52.8813 H       1  ZINC000562561773    0.1200
     33 H33        -3.7218    4.0636   53.1207 H       1  ZINC000562561773    0.1300
     34 H34        -5.5574    2.5672   53.7317 H       1  ZINC000562561773    0.1100
     35 H35        -5.9888    3.4295   52.2356 H       1  ZINC000562561773    0.1100
     36 H36        -7.7122   -1.0048   49.7749 H       1  ZINC000562561773    0.1000
     37 H37        -6.4682   -1.4995   50.9480 H       1  ZINC000562561773    0.1000
     38 H38        -8.0946   -2.2194   51.0186 H       1  ZINC000562561773    0.1100
     39 H39        -1.6219    1.0464   48.5879 H       1  ZINC000562561773    0.1300
     40 H40         1.6691    0.3699   47.2441 H       1  ZINC000562561773    0.0900
     41 H41         0.3895    0.3204   48.5001 H       1  ZINC000562561773    0.0500
     42 H42         1.5115   -2.0002   46.8332 H       1  ZINC000562561773    0.0800
     43 H43         1.2523   -1.9273   48.6071 H       1  ZINC000562561773    0.0700
     44 H44        -0.6002   -3.0180   46.8213 H       1  ZINC000562561773    0.0800
     45 H45        -1.0473   -2.3167   48.4060 H       1  ZINC000562561773    0.0700
     46 H46        -2.1175   -0.5899   47.3499 H       1  ZINC000562561773    0.0500
     47 H47        -1.7036   -1.3101   45.7683 H       1  ZINC000562561773    0.0800
@<TRIPOS>BOND
     1     1     2    1
     2     1    27    1
     3     1    28    1
     4     1    29    1
     5     2    21   ar
     6     2     3   ar
     7     3     4   ar
     8     3    30    1
     9     4     5   ar
    10     4    31    1
    11     5     6    1
    12     5    20   ar
    13     6    19    1
    14     6     7    2
    15     7     8    1
    16     8     9    1
    17     9    10    1
    18     9    19    2
    19    10    11    1
    20    10    32    1
    21    10    33    1
    22    11    12    1
    23    11    34    1
    24    11    35    1
    25    12    13    1
    26    13    17    1
    27    13    14    2
    28    14    15    1
    29    15    16    2
    30    16    17    1
    31    17    18    1
    32    18    36    1
    33    18    37    1
    34    18    38    1
    35    20    21   ar
    36    20    39    1
    37    21    22    1
    38    22    26    1
    39    22    23    1
    40    23    24    1
    41    23    40    1
    42    23    41    1
    43    24    25    1
    44    24    42    1
    45    24    43    1
    46    25    26    1
    47    25    44    1
    48    25    45    1
    49    26    46    1
    50    26    47    1
@<TRIPOS>SUBSTRUCTURE
     1 ZINC000562561773        1 TEMP              0 ****  ****    0 ROOT


##########                                Name:    ZINC000980108339
##########                DOCK_Rotatable_Bonds:                   9
##########                         Heavy_Atoms:                  25
##########                    Molecular_Weight:             348.445
##########                DOCK_Rotatable_Bonds:                   9
##########                       Formal_Charge:          -0.0100001
##########                     HBond_Acceptors:                   7
##########                        HBond_Donors:                   3
##########                         Heavy_Atoms:                  25
##########                          Grid_Score:          -35.448311
##########                     Grid_vdw_energy:          -34.650490
##########                      Grid_es_energy:           -0.797820
##########           Internal_energy_repulsive:            8.272548

@<TRIPOS>MOLECULE
ZINC000980108339
 53 56 1 0 0
SMALL
USER_CHARGES


@<TRIPOS>ATOM
      1 C1        -10.6201   -1.1249   51.5273 C.3     1  ZINC000980108339    0.1200
      2 N2         -9.3588   -0.8408   52.2165 N.am    1  ZINC000980108339   -0.6400
      3 C3         -8.0518   -0.6689   51.5648 C.3     1  ZINC000980108339    0.1100
      4 C4         -7.0886   -0.3943   52.7360 C.3     1  ZINC000980108339    0.1000
      5 H5         -6.3227   -1.1679   52.7910 H       1  ZINC000980108339    0.1200
      6 C6         -6.4554    0.9657   52.5924 C.2     1  ZINC000980108339    0.5000
      7 O7         -6.8738    1.9009   53.2414 O.2     1  ZINC000980108339   -0.5200
      8 N8         -5.4242    1.1426   51.7429 N.am    1  ZINC000980108339   -0.7200
      9 C9         -4.8098    2.4649   51.6020 C.3     1  ZINC000980108339    0.1300
     10 C10        -3.9651    2.5017   50.3268 C.3     1  ZINC000980108339   -0.1200
     11 H11        -4.4119    1.9394   49.5069 H       1  ZINC000980108339    0.1000
     12 C12        -3.5120    3.9162   49.9286 C.3     1  ZINC000980108339   -0.1400
     13 C13        -2.1583    3.2913   49.5518 C.3     1  ZINC000980108339    0.1200
     14 H14        -1.3014    3.9026   49.8346 H       1  ZINC000980108339    0.1100
     15 N15        -2.0925    2.8268   48.1639 N.am    1  ZINC000980108339   -0.7200
     16 C16        -2.0639    3.7200   47.1551 C.2     1  ZINC000980108339    0.5200
     17 O17        -2.0912    4.9083   47.3962 O.2     1  ZINC000980108339   -0.5300
     18 C18        -1.9980    3.2422   45.7272 C.3     1  ZINC000980108339   -0.1100
     19 C19        -1.0604    2.0367   45.6356 C.3     1  ZINC000980108339   -0.1300
     20 H20        -0.1164    2.1334   46.1718 H       1  ZINC000980108339    0.1200
     21 C21        -1.0506    1.2474   44.3248 C.3     1  ZINC000980108339   -0.1700
     22 C22        -1.6994    0.6478   45.5749 C.3     1  ZINC000980108339   -0.1200
     23 H23        -2.7877    0.5928   45.6000 H       1  ZINC000980108339    0.1000
     24 C24        -0.9644   -0.4995   46.2709 C.3     1  ZINC000980108339   -0.1300
     25 C25        -0.3063   -0.2017   47.6197 C.3     1  ZINC000980108339   -0.1800
     26 C26        -1.5768   -1.0521   47.5595 C.3     1  ZINC000980108339   -0.1800
     27 C27        -2.4809    2.1746   50.5612 C.3     1  ZINC000980108339   -0.1400
     28 N28        -7.9552   -0.4407   53.9232 N.am    1  ZINC000980108339   -0.7200
     29 C29        -9.2141   -0.6909   53.5396 C.2     1  ZINC000980108339    0.7000
     30 O30       -10.1398   -0.7826   54.3225 O.2     1  ZINC000980108339   -0.5800
     31 H31       -11.4255   -1.1961   52.2583 H       1  ZINC000980108339    0.0900
     32 H32       -10.8383   -0.3217   50.8234 H       1  ZINC000980108339    0.0600
     33 H33       -10.5348   -2.0679   50.9874 H       1  ZINC000980108339    0.0600
     34 H34        -7.7642   -1.5789   51.0382 H       1  ZINC000980108339    0.1000
     35 H35        -8.0740    0.1794   50.8808 H       1  ZINC000980108339    0.0900
     36 H36        -5.0887    0.3942   51.2248 H       1  ZINC000980108339    0.4000
     37 H37        -5.5901    3.2237   51.5429 H       1  ZINC000980108339    0.0700
     38 H38        -4.1740    2.6640   52.4647 H       1  ZINC000980108339    0.0700
     39 H39        -4.0560    4.3256   49.0774 H       1  ZINC000980108339    0.0800
     40 H40        -3.4545    4.6089   50.7683 H       1  ZINC000980108339    0.1000
     41 H41        -2.0694    1.8764   47.9711 H       1  ZINC000980108339    0.4000
     42 H42        -2.9949    2.9532   45.3944 H       1  ZINC000980108339    0.1000
     43 H43        -1.6215    4.0445   45.0927 H       1  ZINC000980108339    0.1000
     44 H44        -1.7122    1.5871   43.5279 H       1  ZINC000980108339    0.0900
     45 H45        -0.1002    0.8247   43.9990 H       1  ZINC000980108339    0.1000
     46 H46        -0.4612   -1.2051   45.6098 H       1  ZINC000980108339    0.1000
     47 H47         0.6303   -0.7114   47.8461 H       1  ZINC000980108339    0.0900
     48 H48        -0.3969    0.8114   48.0111 H       1  ZINC000980108339    0.0900
     49 H49        -2.5033   -0.5984   47.9114 H       1  ZINC000980108339    0.0900
     50 H50        -1.4761   -2.1212   47.7464 H       1  ZINC000980108339    0.0900
     51 H51        -2.1417    2.3905   51.5743 H       1  ZINC000980108339    0.1000
     52 H52        -2.1921    1.1806   50.2198 H       1  ZINC000980108339    0.0800
     53 H53        -7.6625   -0.3072   54.8382 H       1  ZINC000980108339    0.4400
@<TRIPOS>BOND
     1     1     2    1
     2     1    31    1
     3     1    32    1
     4     1    33    1
     5     2    29   am
     6     2     3    1
     7     3     4    1
     8     3    34    1
     9     3    35    1
    10     4     5    1
    11     4     6    1
    12     4    28    1
    13     6     7    2
    14     6     8   am
    15     8     9    1
    16     8    36    1
    17     9    10    1
    18     9    37    1
    19     9    38    1
    20    10    11    1
    21    10    27    1
    22    10    12    1
    23    12    13    1
    24    12    39    1
    25    12    40    1
    26    13    14    1
    27    13    15    1
    28    13    27    1
    29    15    16   am
    30    15    41    1
    31    16    17    2
    32    16    18    1
    33    18    19    1
    34    18    42    1
    35    18    43    1
    36    19    20    1
    37    19    22    1
    38    19    21    1
    39    21    22    1
    40    21    44    1
    41    21    45    1
    42    22    23    1
    43    22    24    1
    44    24    26    1
    45    24    25    1
    46    24    46    1
    47    25    26    1
    48    25    47    1
    49    25    48    1
    50    26    49    1
    51    26    50    1
    52    27    51    1
    53    27    52    1
    54    28    29   am
    55    28    53    1
    56    29    30    2
@<TRIPOS>SUBSTRUCTURE
     1 ZINC000980108339        1 TEMP              0 ****  ****    0 ROOT


##########                                Name:    ZINC000508782983
##########                DOCK_Rotatable_Bonds:                   9
##########                         Heavy_Atoms:                  27
##########                    Molecular_Weight:             373.458
##########                DOCK_Rotatable_Bonds:                   9
##########                       Formal_Charge:          -0.0200006
##########                     HBond_Acceptors:                   9
##########                        HBond_Donors:                   2
##########                         Heavy_Atoms:                  27
##########                          Grid_Score:          -35.447784
##########                     Grid_vdw_energy:          -33.420082
##########                      Grid_es_energy:           -2.027702
##########           Internal_energy_repulsive:           14.376565

@<TRIPOS>MOLECULE
ZINC000508782983
 54 56 1 0 0
SMALL
USER_CHARGES


@<TRIPOS>ATOM
      1 C1         -7.6640    2.5310   55.5143 C.3     1  ZINC000508782983   -0.1500
      2 C2         -7.9413    1.8383   54.1786 C.3     1  ZINC000508782983   -0.1100
      3 C3         -7.0061    2.4029   53.1074 C.3     1  ZINC000508782983   -0.1500
      4 C4         -7.7005    0.3344   54.3244 C.3     1  ZINC000508782983    0.1000
      5 N5         -7.9649   -0.3288   53.0451 N.pl3   1  ZINC000508782983   -0.4400
      6 C6         -7.0482   -0.5967   52.0645 C.2     1  ZINC000508782983   -0.0400
      7 C7         -7.7124   -1.2126   51.0679 C.2     1  ZINC000508782983   -0.0300
      8 N8         -8.9995   -1.3180   51.4303 N.2     1  ZINC000508782983   -0.4700
      9 C9         -9.1571   -0.7952   52.6156 C.2     1  ZINC000508782983    0.1700
     10 C10       -10.4564   -0.7165   53.3751 C.3     1  ZINC000508782983    0.2100
     11 N11       -10.3834   -1.5776   54.5581 N.am    1  ZINC000508782983   -0.6900
     12 C12       -11.3998   -1.5947   55.4430 C.2     1  ZINC000508782983    0.5100
     13 O13       -12.3761   -0.8979   55.2590 O.2     1  ZINC000508782983   -0.5100
     14 C14       -11.3245   -2.4718   56.6507 C.2     1  ZINC000508782983    0.5100
     15 O15       -11.5681   -3.6568   56.5561 O.2     1  ZINC000508782983   -0.5200
     16 N16       -10.9861   -1.9467   57.8449 N.am    1  ZINC000508782983   -0.5800
     17 C17       -10.9001   -2.7930   59.0447 C.3     1  ZINC000508782983    0.0800
     18 C18        -9.5451   -2.5481   59.7171 C.3     1  ZINC000508782983    0.0400
     19 N19        -9.3749   -1.1091   59.9586 N.3     1  ZINC000508782983   -0.5400
     20 C20        -8.1683   -0.8481   60.7549 C.3     1  ZINC000508782983    0.1400
     21 C21        -8.5659   -0.4375   62.1493 C.2     1  ZINC000508782983    0.2100
     22 N22        -9.6122    0.2767   62.4628 N.2     1  ZINC000508782983   -0.4900
     23 C23        -9.6500    0.4459   63.7927 C.2     1  ZINC000508782983   -0.0300
     24 C24        -8.5868   -0.1875   64.3237 C.2     1  ZINC000508782983   -0.0500
     25 N25        -7.9016   -0.7526   63.2821 N.pl3   1  ZINC000508782983   -0.5600
     26 C26        -9.3460   -0.3569   58.6971 C.3     1  ZINC000508782983    0.0400
     27 C27       -10.6869   -0.5131   57.9816 C.3     1  ZINC000508782983    0.1100
     28 H28        -7.8354    3.6025   55.4103 H       1  ZINC000508782983    0.0700
     29 H29        -8.3302    2.1288   56.2774 H       1  ZINC000508782983    0.0600
     30 H30        -6.6287    2.3555   55.8065 H       1  ZINC000508782983    0.0600
     31 H31        -8.9766    2.0139   53.8862 H       1  ZINC000508782983    0.0800
     32 H32        -5.9720    2.2966   53.4351 H       1  ZINC000508782983    0.0600
     33 H33        -7.1498    1.8567   52.1751 H       1  ZINC000508782983    0.0600
     34 H34        -7.2304    3.4578   52.9486 H       1  ZINC000508782983    0.0600
     35 H35        -6.6655    0.1589   54.6176 H       1  ZINC000508782983    0.1000
     36 H36        -8.3674   -0.0680   55.0869 H       1  ZINC000508782983    0.0900
     37 H37        -5.9947   -0.3594   52.0856 H       1  ZINC000508782983    0.1800
     38 H38        -7.2839   -1.5608   50.1398 H       1  ZINC000508782983    0.1700
     39 H39       -10.6339    0.3131   53.6857 H       1  ZINC000508782983    0.0900
     40 H40       -11.2729   -1.0486   52.7339 H       1  ZINC000508782983    0.1100
     41 H41        -9.6034   -2.1355   54.7045 H       1  ZINC000508782983    0.4200
     42 H42       -11.7034   -2.5333   59.7343 H       1  ZINC000508782983    0.0800
     43 H43       -10.9832   -3.8418   58.7597 H       1  ZINC000508782983    0.1400
     44 H44        -9.5081   -3.0830   60.6661 H       1  ZINC000508782983    0.0900
     45 H45        -8.7465   -2.9048   59.0667 H       1  ZINC000508782983    0.0400
     46 H46        -7.5612   -1.7521   60.8015 H       1  ZINC000508782983    0.0900
     47 H47        -7.5927   -0.0473   60.2906 H       1  ZINC000508782983    0.0700
     48 H48       -10.4014    0.9940   64.3416 H       1  ZINC000508782983    0.1700
     49 H49        -8.3269   -0.2427   65.3705 H       1  ZINC000508782983    0.1800
     50 H50        -7.0880   -1.2768   63.3453 H       1  ZINC000508782983    0.4200
     51 H51        -9.1645    0.6973   58.9063 H       1  ZINC000508782983    0.1100
     52 H52        -8.5502   -0.7441   58.0609 H       1  ZINC000508782983    0.0400
     53 H53       -10.6312   -0.0533   56.9949 H       1  ZINC000508782983    0.1000
     54 H54       -11.4724   -0.0355   58.5674 H       1  ZINC000508782983    0.0800
@<TRIPOS>BOND
     1     1     2    1
     2     1    28    1
     3     1    29    1
     4     1    30    1
     5     2     3    1
     6     2     4    1
     7     2    31    1
     8     3    32    1
     9     3    33    1
    10     3    34    1
    11     4     5    1
    12     4    35    1
    13     4    36    1
    14     5     9    1
    15     5     6    1
    16     6     7    2
    17     6    37    1
    18     7     8    1
    19     7    38    1
    20     8     9    2
    21     9    10    1
    22    10    11    1
    23    10    39    1
    24    10    40    1
    25    11    12   am
    26    11    41    1
    27    12    13    2
    28    12    14    1
    29    14    15    2
    30    14    16   am
    31    16    27    1
    32    16    17    1
    33    17    18    1
    34    17    42    1
    35    17    43    1
    36    18    19    1
    37    18    44    1
    38    18    45    1
    39    19    20    1
    40    19    26    1
    41    20    21    1
    42    20    46    1
    43    20    47    1
    44    21    25    1
    45    21    22    2
    46    22    23    1
    47    23    24    2
    48    23    48    1
    49    24    25    1
    50    24    49    1
    51    25    50    1
    52    26    27    1
    53    26    51    1
    54    26    52    1
    55    27    53    1
    56    27    54    1
@<TRIPOS>SUBSTRUCTURE
     1 ZINC000508782983        1 TEMP              0 ****  ****    0 ROOT


##########                                Name:    ZINC000045927156
##########                DOCK_Rotatable_Bonds:                   7
##########                         Heavy_Atoms:                  30
##########                    Molecular_Weight:             418.522
##########                DOCK_Rotatable_Bonds:                   7
##########                       Formal_Charge:           0.0200001
##########                     HBond_Acceptors:                   8
##########                        HBond_Donors:                   1
##########                         Heavy_Atoms:                  30
##########                          Grid_Score:          -35.419052
##########                     Grid_vdw_energy:          -33.793312
##########                      Grid_es_energy:           -1.625742
##########           Internal_energy_repulsive:           20.066090

@<TRIPOS>MOLECULE
ZINC000045927156
 52 56 1 0 0
SMALL
USER_CHARGES


@<TRIPOS>ATOM
      1 O1         -0.1664    4.2117   51.3623 O.2     1  ZINC000045927156   -0.5800
      2 C2         -0.0814    3.0128   51.1778 C.2     1  ZINC000045927156    0.7300
      3 N3         -1.1901    2.2469   51.2028 N.am    1  ZINC000045927156   -0.7400
      4 C4         -2.4969    2.8578   51.4583 C.3     1  ZINC000045927156    0.1700
      5 C5         -2.7230    2.9570   52.9449 C.ar    1  ZINC000045927156   -0.0700
      6 C6         -1.6624    2.8006   53.8172 C.ar    1  ZINC000045927156   -0.1000
      7 C7         -1.8698    2.8916   55.1810 C.ar    1  ZINC000045927156   -0.1100
      8 C8         -3.1378    3.1393   55.6722 C.ar    1  ZINC000045927156   -0.1100
      9 C9         -4.1986    3.2966   54.7996 C.ar    1  ZINC000045927156   -0.1000
     10 C10        -3.9905    3.2100   53.4360 C.ar    1  ZINC000045927156   -0.1000
     11 C11        -5.1467    3.3815   52.4849 C.3     1  ZINC000045927156    0.1700
     12 N12        -5.8202    2.0940   52.2978 N.pl3   1  ZINC000045927156   -0.3800
     13 C13        -5.5743    1.1885   51.3350 C.2     1  ZINC000045927156    0.2500
     14 N14        -6.3841    0.1764   51.5133 N.2     1  ZINC000045927156   -0.5400
     15 C15        -7.1581    0.3983   52.5749 C.2     1  ZINC000045927156    0.2000
     16 N16        -6.8466    1.5576   53.0923 N.2     1  ZINC000045927156   -0.3100
     17 N17         1.1208    2.4508   50.9428 N.am    1  ZINC000045927156   -0.6200
     18 C18         2.4081    3.1673   50.8870 C.3     1  ZINC000045927156    0.1000
     19 C19         3.4744    2.0934   51.2176 C.3     1  ZINC000045927156   -0.1300
     20 C20         2.8870    0.8433   50.5107 C.3     1  ZINC000045927156   -0.1200
     21 C21         1.3667    1.0208   50.7059 C.3     1  ZINC000045927156    0.2300
     22 H22         1.0320    0.4353   51.5623 H       1  ZINC000045927156    0.1000
     23 C23         0.6353    0.5775   49.4650 C.2     1  ZINC000045927156    0.0900
     24 N24         0.2266    1.3709   48.5486 N.2     1  ZINC000045927156   -0.4500
     25 C25        -0.4141    0.8349   47.4922 C.ar    1  ZINC000045927156    0.0800
     26 C26        -0.9616    1.4653   46.3570 C.ar    1  ZINC000045927156   -0.0700
     27 C27        -1.5773    0.7302   45.3895 C.ar    1  ZINC000045927156   -0.1100
     28 C28        -1.6772   -0.6492   45.5015 C.ar    1  ZINC000045927156   -0.1000
     29 C29        -1.1513   -1.2921   46.5997 C.ar    1  ZINC000045927156   -0.0700
     30 C30        -0.5182   -0.5566   47.5990 C.ar    1  ZINC000045927156   -0.1800
     31 S31         0.2554   -1.0463   49.1031 S.3     1  ZINC000045927156    0.1200
     32 H32        -1.1227    1.2911   51.0515 H       1  ZINC000045927156    0.3900
     33 H33        -2.5237    3.8552   51.0193 H       1  ZINC000045927156    0.1000
     34 H34        -3.2787    2.2434   51.0120 H       1  ZINC000045927156    0.0700
     35 H35        -0.6716    2.6070   53.4334 H       1  ZINC000045927156    0.1300
     36 H36        -1.0412    2.7687   55.8627 H       1  ZINC000045927156    0.1300
     37 H37        -3.3000    3.2096   56.7376 H       1  ZINC000045927156    0.1300
     38 H38        -5.1894    3.4898   55.1834 H       1  ZINC000045927156    0.1300
     39 H39        -5.8517    4.1038   52.8964 H       1  ZINC000045927156    0.1100
     40 H40        -4.7770    3.7411   51.5246 H       1  ZINC000045927156    0.1000
     41 H41        -4.8375    1.2807   50.5509 H       1  ZINC000045927156    0.2200
     42 H42        -7.9167   -0.2727   52.9497 H       1  ZINC000045927156    0.2200
     43 H43         2.5740    3.5719   49.8886 H       1  ZINC000045927156    0.0700
     44 H44         2.4305    3.9653   51.6292 H       1  ZINC000045927156    0.0800
     45 H45         4.4430    2.3617   50.7960 H       1  ZINC000045927156    0.0900
     46 H46         3.5487    1.9349   52.2935 H       1  ZINC000045927156    0.0800
     47 H47         3.1460    0.8417   49.4519 H       1  ZINC000045927156    0.0900
     48 H48         3.2316   -0.0707   50.9943 H       1  ZINC000045927156    0.0900
     49 H49        -0.8929    2.5381   46.2535 H       1  ZINC000045927156    0.1300
     50 H50        -1.9930    1.2268   44.5253 H       1  ZINC000045927156    0.1400
     51 H51        -2.1682   -1.2192   44.7266 H       1  ZINC000045927156    0.1400
     52 H52        -1.2301   -2.3657   46.6865 H       1  ZINC000045927156    0.1300
@<TRIPOS>BOND
     1     1     2    2
     2     2     3   am
     3     2    17   am
     4     3     4    1
     5     3    32    1
     6     4     5    1
     7     4    33    1
     8     4    34    1
     9     5    10   ar
    10     5     6   ar
    11     6     7   ar
    12     6    35    1
    13     7     8   ar
    14     7    36    1
    15     8     9   ar
    16     8    37    1
    17     9    10   ar
    18     9    38    1
    19    10    11    1
    20    11    12    1
    21    11    39    1
    22    11    40    1
    23    12    16    1
    24    12    13    1
    25    13    14    2
    26    13    41    1
    27    14    15    1
    28    15    16    2
    29    15    42    1
    30    17    21    1
    31    17    18    1
    32    18    19    1
    33    18    43    1
    34    18    44    1
    35    19    20    1
    36    19    45    1
    37    19    46    1
    38    20    21    1
    39    20    47    1
    40    20    48    1
    41    21    22    1
    42    21    23    1
    43    23    31    1
    44    23    24    2
    45    24    25    1
    46    25    30   ar
    47    25    26   ar
    48    26    27   ar
    49    26    49    1
    50    27    28   ar
    51    27    50    1
    52    28    29   ar
    53    28    51    1
    54    29    30   ar
    55    29    52    1
    56    30    31    1
@<TRIPOS>SUBSTRUCTURE
     1 ZINC000045927156        1 TEMP              0 ****  ****    0 ROOT


##########                                Name:    ZINC000471198073
##########                DOCK_Rotatable_Bonds:                  12
##########                         Heavy_Atoms:                  30
##########                    Molecular_Weight:             409.528
##########                DOCK_Rotatable_Bonds:                  12
##########                       Formal_Charge:          -0.0399998
##########                     HBond_Acceptors:                   6
##########                        HBond_Donors:                   3
##########                         Heavy_Atoms:                  30
##########                          Grid_Score:          -35.333000
##########                     Grid_vdw_energy:          -35.711384
##########                      Grid_es_energy:            0.378382
##########           Internal_energy_repulsive:           21.654823

@<TRIPOS>MOLECULE
ZINC000471198073
 61 62 1 0 0
SMALL
USER_CHARGES


@<TRIPOS>ATOM
      1 C1        -10.4155   -3.0302   58.8977 C.3     1  ZINC000471198073   -0.1400
      2 C2        -10.0237   -1.5576   59.0351 C.3     1  ZINC000471198073   -0.1100
      3 C3         -8.6186   -1.4573   59.6322 C.3     1  ZINC000471198073   -0.1500
      4 C4        -10.0402   -0.9045   57.6771 C.2     1  ZINC000471198073    0.5200
      5 O5        -10.4798    0.2187   57.5497 O.2     1  ZINC000471198073   -0.5200
      6 N6         -9.5664   -1.5684   56.6042 N.am    1  ZINC000471198073   -0.6700
      7 C7         -9.5817   -0.9620   55.3433 C.ar    1  ZINC000471198073    0.1600
      8 C8        -10.6135   -1.2334   54.4538 C.ar    1  ZINC000471198073   -0.1500
      9 C9        -10.6299   -0.6347   53.2083 C.ar    1  ZINC000471198073   -0.0800
     10 C10        -9.6210    0.2353   52.8436 C.ar    1  ZINC000471198073   -0.1300
     11 C11        -8.5853    0.5108   53.7288 C.ar    1  ZINC000471198073    0.1500
     12 N12        -7.5646    1.3906   53.3592 N.am    1  ZINC000471198073   -0.6400
     13 C13        -6.6211    0.9972   52.4808 C.2     1  ZINC000471198073    0.5100
     14 O14        -6.6581   -0.1212   52.0108 O.2     1  ZINC000471198073   -0.5000
     15 C15        -5.5301    1.9376   52.0858 C.2     1  ZINC000471198073    0.5100
     16 O16        -5.5160    3.0692   52.5242 O.2     1  ZINC000471198073   -0.5100
     17 N17        -4.5613    1.5295   51.2423 N.am    1  ZINC000471198073   -0.7000
     18 C18        -3.4922    2.4524   50.8534 C.3     1  ZINC000471198073    0.1200
     19 C19        -2.6698    1.8326   49.7219 C.3     1  ZINC000471198073   -0.0900
     20 H20        -2.5329    0.7683   49.9132 H       1  ZINC000471198073    0.0800
     21 C21        -3.4057    2.0216   48.3938 C.3     1  ZINC000471198073   -0.0800
     22 C22        -2.5868    1.4278   47.2768 C.ar    1  ZINC000471198073   -0.0800
     23 C23        -1.9724    0.2012   47.4469 C.ar    1  ZINC000471198073   -0.1200
     24 C24        -1.2211   -0.3434   46.4223 C.ar    1  ZINC000471198073   -0.1200
     25 C25        -1.0845    0.3383   45.2275 C.ar    1  ZINC000471198073   -0.1200
     26 C26        -1.6997    1.5644   45.0571 C.ar    1  ZINC000471198073   -0.1200
     27 C27        -2.4546    2.1070   46.0801 C.ar    1  ZINC000471198073   -0.1200
     28 C28        -1.3037    2.5177   49.6499 C.3     1  ZINC000471198073   -0.1000
     29 C29        -1.4712    4.0172   49.9035 C.3     1  ZINC000471198073   -0.1600
     30 C30        -0.3774    1.9213   50.7116 C.3     1  ZINC000471198073   -0.1700
     31 C31        -8.5693   -0.0846   54.9824 C.ar    1  ZINC000471198073   -0.1400
     32 H32       -10.4035   -3.5026   59.8798 H       1  ZINC000471198073    0.0700
     33 H33       -11.4166   -3.1017   58.4723 H       1  ZINC000471198073    0.0600
     34 H34        -9.7056   -3.5354   58.2429 H       1  ZINC000471198073    0.0600
     35 H35       -10.7336   -1.0524   59.6899 H       1  ZINC000471198073    0.1000
     36 H36        -7.9086   -1.9626   58.9774 H       1  ZINC000471198073    0.0600
     37 H37        -8.3394   -0.4082   59.7301 H       1  ZINC000471198073    0.0600
     38 H38        -8.6066   -1.9297   60.6145 H       1  ZINC000471198073    0.0700
     39 H39        -9.2149   -2.4667   56.7061 H       1  ZINC000471198073    0.4100
     40 H40       -11.4038   -1.9134   54.7357 H       1  ZINC000471198073    0.1300
     41 H41       -11.4331   -0.8477   52.5186 H       1  ZINC000471198073    0.1300
     42 H42        -9.6366    0.7015   51.8696 H       1  ZINC000471198073    0.1400
     43 H43        -7.5351    2.2844   53.7349 H       1  ZINC000471198073    0.4200
     44 H44        -4.5720    0.6247   50.8928 H       1  ZINC000471198073    0.4200
     45 H45        -3.9287    3.3914   50.5130 H       1  ZINC000471198073    0.0700
     46 H46        -2.8460    2.6418   51.7105 H       1  ZINC000471198073    0.0800
     47 H47        -4.3733    1.5218   48.4404 H       1  ZINC000471198073    0.0800
     48 H48        -3.5548    3.0855   48.2093 H       1  ZINC000471198073    0.0800
     49 H49        -2.0789   -0.3314   48.3804 H       1  ZINC000471198073    0.1200
     50 H50        -0.7404   -1.3013   46.5554 H       1  ZINC000471198073    0.1200
     51 H51        -0.4970   -0.0869   44.4272 H       1  ZINC000471198073    0.1200
     52 H52        -1.5929    2.0971   44.1238 H       1  ZINC000471198073    0.1200
     53 H53        -2.9352    3.0650   45.9471 H       1  ZINC000471198073    0.1200
     54 H54        -0.8710    2.3625   48.6615 H       1  ZINC000471198073    0.0800
     55 H55        -1.8111    4.1770   50.9268 H       1  ZINC000471198073    0.0600
     56 H56        -0.5153    4.5197   49.7556 H       1  ZINC000471198073    0.0600
     57 H57        -2.2064    4.4233   49.2089 H       1  ZINC000471198073    0.0600
     58 H58        -0.3585    0.8363   50.6091 H       1  ZINC000471198073    0.0600
     59 H59         0.6297    2.3164   50.5785 H       1  ZINC000471198073    0.0600
     60 H60        -0.7436    2.1862   51.7034 H       1  ZINC000471198073    0.0700
     61 H61        -7.7657    0.1278   55.6721 H       1  ZINC000471198073    0.1400
@<TRIPOS>BOND
     1     1     2    1
     2     1    32    1
     3     1    33    1
     4     1    34    1
     5     2     3    1
     6     2     4    1
     7     2    35    1
     8     3    36    1
     9     3    37    1
    10     3    38    1
    11     4     5    2
    12     4     6   am
    13     6     7    1
    14     6    39    1
    15     7    31   ar
    16     7     8   ar
    17     8     9   ar
    18     8    40    1
    19     9    10   ar
    20     9    41    1
    21    10    11   ar
    22    10    42    1
    23    11    12    1
    24    11    31   ar
    25    12    13   am
    26    12    43    1
    27    13    14    2
    28    13    15    1
    29    15    16    2
    30    15    17   am
    31    17    18    1
    32    17    44    1
    33    18    19    1
    34    18    45    1
    35    18    46    1
    36    19    20    1
    37    19    21    1
    38    19    28    1
    39    21    22    1
    40    21    47    1
    41    21    48    1
    42    22    27   ar
    43    22    23   ar
    44    23    24   ar
    45    23    49    1
    46    24    25   ar
    47    24    50    1
    48    25    26   ar
    49    25    51    1
    50    26    27   ar
    51    26    52    1
    52    27    53    1
    53    28    29    1
    54    28    30    1
    55    28    54    1
    56    29    55    1
    57    29    56    1
    58    29    57    1
    59    30    58    1
    60    30    59    1
    61    30    60    1
    62    31    61    1
@<TRIPOS>SUBSTRUCTURE
     1 ZINC000471198073        1 TEMP              0 ****  ****    0 ROOT


##########                                Name:    ZINC000523153175
##########                DOCK_Rotatable_Bonds:                   9
##########                         Heavy_Atoms:                  30
##########                    Molecular_Weight:             413.603
##########                DOCK_Rotatable_Bonds:                   9
##########                       Formal_Charge:           0.0499987
##########                     HBond_Acceptors:                   5
##########                        HBond_Donors:                   1
##########                         Heavy_Atoms:                  30
##########                          Grid_Score:          -35.270721
##########                     Grid_vdw_energy:          -35.160015
##########                      Grid_es_energy:           -0.110706
##########           Internal_energy_repulsive:           28.194050

@<TRIPOS>MOLECULE
ZINC000523153175
 69 71 1 0 0
SMALL
USER_CHARGES


@<TRIPOS>ATOM
      1 C1          0.6157   -1.8956   47.6027 C.3     1  ZINC000523153175   -0.1500
      2 C2          1.0556   -0.4683   47.9349 C.3     1  ZINC000523153175   -0.0600
      3 C3          1.4424    0.2592   46.6458 C.3     1  ZINC000523153175   -0.1400
      4 C4         -0.0789    0.2640   48.6040 C.ar    1  ZINC000523153175   -0.0800
      5 C5         -1.3175    0.3254   47.9933 C.ar    1  ZINC000523153175   -0.1100
      6 C6         -2.3582    0.9971   48.6071 C.ar    1  ZINC000523153175   -0.1100
      7 C7         -2.1603    1.6071   49.8318 C.ar    1  ZINC000523153175   -0.0800
      8 C8         -3.2947    2.3399   50.5006 C.3     1  ZINC000523153175   -0.0300
      9 H9         -2.9922    2.6395   51.5040 H       1  ZINC000523153175    0.0800
     10 C10        -3.6513    3.5829   49.6829 C.3     1  ZINC000523153175   -0.1500
     11 C11        -4.5142    1.4202   50.5887 C.3     1  ZINC000523153175   -0.1300
     12 C12        -5.2937    1.7379   51.8387 C.2     1  ZINC000523153175    0.5200
     13 O13        -5.1322    2.8005   52.4004 O.2     1  ZINC000523153175   -0.5300
     14 N14        -6.1703    0.8411   52.3325 N.am    1  ZINC000523153175   -0.6200
     15 C15        -6.9469    1.1344   53.5467 C.3     1  ZINC000523153175    0.1100
     16 C16        -8.4275    0.8699   53.2533 C.3     1  ZINC000523153175    0.0400
     17 N17        -8.5837   -0.4940   52.7303 N.3     1  ZINC000523153175   -0.5100
     18 C18       -10.0034   -0.8477   52.5981 C.3     1  ZINC000523153175    0.0600
     19 H19       -10.1219   -1.5836   51.8028 H       1  ZINC000523153175    0.1100
     20 C20       -10.5073   -1.4365   53.9171 C.3     1  ZINC000523153175   -0.1800
     21 C21       -10.7995    0.3872   52.2624 C.2     1  ZINC000523153175    0.5200
     22 O22       -10.7580    0.8495   51.1421 O.2     1  ZINC000523153175   -0.5200
     23 N23       -11.5575    0.9777   53.2075 N.am    1  ZINC000523153175   -0.7200
     24 C24       -12.3328    2.1771   52.8808 C.3     1  ZINC000523153175    0.1400
     25 C25       -13.6752    1.7786   52.2335 C.3     1  ZINC000523153175   -0.1300
     26 C26       -14.6802    1.7793   53.4120 C.3     1  ZINC000523153175   -0.1300
     27 C27       -14.2163    2.9923   54.2561 C.3     1  ZINC000523153175   -0.1300
     28 C28       -12.6769    2.9488   54.1669 C.3     1  ZINC000523153175   -0.1300
     29 C29        -7.8789   -0.6585   51.4520 C.3     1  ZINC000523153175    0.0400
     30 C30        -6.3803   -0.4541   51.6682 C.3     1  ZINC000523153175    0.1200
     31 C31        -0.9221    1.5444   50.4430 C.ar    1  ZINC000523153175   -0.1100
     32 C32         0.1175    0.8694   49.8311 C.ar    1  ZINC000523153175   -0.1200
     33 H33         1.4363   -2.4253   47.1187 H       1  ZINC000523153175    0.0600
     34 H34         0.3401   -2.4139   48.5210 H       1  ZINC000523153175    0.0600
     35 H35        -0.2426   -1.8644   46.9316 H       1  ZINC000523153175    0.0600
     36 H36         1.9139   -0.4996   48.6061 H       1  ZINC000523153175    0.0800
     37 H37         0.5841    0.2905   45.9747 H       1  ZINC000523153175    0.0600
     38 H38         1.7557    1.2761   46.8825 H       1  ZINC000523153175    0.0600
     39 H39         2.2630   -0.2704   46.1618 H       1  ZINC000523153175    0.0600
     40 H40        -1.4722   -0.1511   47.0365 H       1  ZINC000523153175    0.1200
     41 H41        -3.3258    1.0458   48.1296 H       1  ZINC000523153175    0.1200
     42 H42        -4.4719    4.1129   50.1667 H       1  ZINC000523153175    0.0800
     43 H43        -2.7825    4.2381   49.6201 H       1  ZINC000523153175    0.0600
     44 H44        -3.9538    3.2832   48.6795 H       1  ZINC000523153175    0.0500
     45 H45        -5.1489    1.5736   49.7159 H       1  ZINC000523153175    0.0900
     46 H46        -4.1846    0.3817   50.6203 H       1  ZINC000523153175    0.0900
     47 H47        -6.6136    0.4888   54.3593 H       1  ZINC000523153175    0.0800
     48 H48        -6.8099    2.1792   53.8256 H       1  ZINC000523153175    0.0900
     49 H49        -9.0049    0.9756   54.1718 H       1  ZINC000523153175    0.0900
     50 H50        -8.7854    1.5861   52.5138 H       1  ZINC000523153175    0.0400
     51 H51       -10.3888   -0.7004   54.7124 H       1  ZINC000523153175    0.0700
     52 H52       -11.5607   -1.6988   53.8190 H       1  ZINC000523153175    0.0700
     53 H53        -9.9315   -2.3296   54.1599 H       1  ZINC000523153175    0.0700
     54 H54       -11.5897    0.6086   54.1039 H       1  ZINC000523153175    0.4000
     55 H55       -11.7654    2.8150   52.2031 H       1  ZINC000523153175    0.0900
     56 H56       -13.9684    2.5112   51.4815 H       1  ZINC000523153175    0.0700
     57 H57       -13.6055    0.7844   51.7921 H       1  ZINC000523153175    0.0700
     58 H58       -15.6982    1.9263   53.0514 H       1  ZINC000523153175    0.0700
     59 H59       -14.6023    0.8563   53.9867 H       1  ZINC000523153175    0.0700
     60 H60       -14.5970    3.9208   53.8309 H       1  ZINC000523153175    0.0700
     61 H61       -14.5416    2.8838   55.2907 H       1  ZINC000523153175    0.0700
     62 H62       -12.2671    2.4309   55.0341 H       1  ZINC000523153175    0.0700
     63 H63       -12.2772    3.9615   54.1128 H       1  ZINC000523153175    0.0800
     64 H64        -8.0584   -1.6612   51.0642 H       1  ZINC000523153175    0.1000
     65 H65        -8.2445    0.0791   50.7376 H       1  ZINC000523153175    0.0400
     66 H66        -5.8673   -0.4615   50.7065 H       1  ZINC000523153175    0.1000
     67 H67        -5.9895   -1.2511   52.3009 H       1  ZINC000523153175    0.0800
     68 H68        -0.7676    2.0207   51.4000 H       1  ZINC000523153175    0.1200
     69 H69         1.0849    0.8205   50.3087 H       1  ZINC000523153175    0.1200
@<TRIPOS>BOND
     1     1     2    1
     2     1    33    1
     3     1    34    1
     4     1    35    1
     5     2     3    1
     6     2     4    1
     7     2    36    1
     8     3    37    1
     9     3    38    1
    10     3    39    1
    11     4    32   ar
    12     4     5   ar
    13     5     6   ar
    14     5    40    1
    15     6     7   ar
    16     6    41    1
    17     7     8    1
    18     7    31   ar
    19     8     9    1
    20     8    10    1
    21     8    11    1
    22    10    42    1
    23    10    43    1
    24    10    44    1
    25    11    12    1
    26    11    45    1
    27    11    46    1
    28    12    13    2
    29    12    14   am
    30    14    30    1
    31    14    15    1
    32    15    16    1
    33    15    47    1
    34    15    48    1
    35    16    17    1
    36    16    49    1
    37    16    50    1
    38    17    18    1
    39    17    29    1
    40    18    19    1
    41    18    20    1
    42    18    21    1
    43    20    51    1
    44    20    52    1
    45    20    53    1
    46    21    22    2
    47    21    23   am
    48    23    24    1
    49    23    54    1
    50    24    28    1
    51    24    25    1
    52    24    55    1
    53    25    26    1
    54    25    56    1
    55    25    57    1
    56    26    27    1
    57    26    58    1
    58    26    59    1
    59    27    28    1
    60    27    60    1
    61    27    61    1
    62    28    62    1
    63    28    63    1
    64    29    30    1
    65    29    64    1
    66    29    65    1
    67    30    66    1
    68    30    67    1
    69    31    32   ar
    70    31    68    1
    71    32    69    1
@<TRIPOS>SUBSTRUCTURE
     1 ZINC000523153175        1 TEMP              0 ****  ****    0 ROOT


##########                                Name:    ZINC001340305486
##########                DOCK_Rotatable_Bonds:                   8
##########                         Heavy_Atoms:                  27
##########                    Molecular_Weight:             378.431
##########                DOCK_Rotatable_Bonds:                   8
##########                       Formal_Charge:          0.00999955
##########                     HBond_Acceptors:                  10
##########                        HBond_Donors:                   2
##########                         Heavy_Atoms:                  27
##########                          Grid_Score:          -35.216457
##########                     Grid_vdw_energy:          -35.982376
##########                      Grid_es_energy:            0.765918
##########           Internal_energy_repulsive:           14.229463

@<TRIPOS>MOLECULE
ZINC001340305486
 53 55 1 0 0
SMALL
USER_CHARGES


@<TRIPOS>ATOM
      1 C1        -10.5556   -2.3429   54.9643 C.3     1  ZINC001340305486    0.0900
      2 N2         -9.6532   -1.4269   54.2622 N.am    1  ZINC001340305486   -0.7300
      3 C3         -9.8298   -0.0949   54.3671 C.2     1  ZINC001340305486    0.5200
      4 O4        -10.7366    0.3454   55.0414 O.2     1  ZINC001340305486   -0.5100
      5 C5         -8.9005    0.8475   53.6463 C.3     1  ZINC001340305486    0.0600
      6 H6         -9.1761    0.8957   52.5929 H       1  ZINC001340305486    0.0900
      7 C7         -7.4586    0.3433   53.7757 C.3     1  ZINC001340305486    0.0900
      8 N8         -6.5571    1.3703   53.2300 N.am    1  ZINC001340305486   -0.5800
      9 C9         -5.6126    1.0531   52.3224 C.2     1  ZINC001340305486    0.5100
     10 O10        -5.4966   -0.0938   51.9430 O.2     1  ZINC001340305486   -0.5200
     11 C11        -4.7082    2.1136   51.7830 C.2     1  ZINC001340305486    0.5200
     12 O12        -4.0693    2.8106   52.5438 O.2     1  ZINC001340305486   -0.5000
     13 N13        -4.6024    2.2960   50.4519 N.am    1  ZINC001340305486   -0.6900
     14 C14        -3.7171    3.3368   49.9233 C.3     1  ZINC001340305486    0.1200
     15 C15        -2.3300    2.7445   49.6667 C.3     1  ZINC001340305486   -0.0400
     16 C16        -2.3755    1.8731   48.4379 C.2     1  ZINC001340305486    0.1700
     17 N17        -3.2430    1.9502   47.4635 N.2     1  ZINC001340305486   -0.2800
     18 N18        -2.9786    1.0562   46.5755 N.2     1  ZINC001340305486   -0.2900
     19 C19        -1.9306    0.3749   46.9417 C.2     1  ZINC001340305486    0.1900
     20 C20        -1.2639   -0.7457   46.1869 C.3     1  ZINC001340305486   -0.0400
     21 C21        -0.9888   -1.9042   47.1502 C.3     1  ZINC001340305486   -0.1200
     22 C22         0.3723   -1.7074   47.8109 C.3     1  ZINC001340305486   -0.1300
     23 C23         0.6591   -0.2203   48.0132 C.3     1  ZINC001340305486   -0.1400
     24 C24        -0.3987    0.3890   48.9377 C.3     1  ZINC001340305486    0.1000
     25 N25        -1.5235    0.8691   48.1341 N.pl3   1  ZINC001340305486   -0.4600
     26 C26        -6.7169    2.7539   53.7049 C.3     1  ZINC001340305486    0.0200
     27 C27        -8.1949    3.1406   53.5790 C.3     1  ZINC001340305486    0.0500
     28 O28        -8.9983    2.1507   54.2258 O.3     1  ZINC001340305486   -0.3500
     29 H29       -10.5031   -2.1539   56.0365 H       1  ZINC001340305486    0.0600
     30 H30       -11.5765   -2.1845   54.6170 H       1  ZINC001340305486    0.0600
     31 H31       -10.2584   -3.3719   54.7618 H       1  ZINC001340305486    0.0800
     32 H32        -8.9287   -1.7791   53.7220 H       1  ZINC001340305486    0.4000
     33 H33        -7.2235    0.1688   54.8257 H       1  ZINC001340305486    0.0900
     34 H34        -7.3420   -0.5835   53.2140 H       1  ZINC001340305486    0.1100
     35 H35        -5.1122    1.7382   49.8439 H       1  ZINC001340305486    0.4200
     36 H36        -4.1263    3.7219   48.9892 H       1  ZINC001340305486    0.0900
     37 H37        -3.6375    4.1481   50.6469 H       1  ZINC001340305486    0.0800
     38 H38        -1.6130    3.5511   49.5138 H       1  ZINC001340305486    0.0900
     39 H39        -2.0259    2.1459   50.5255 H       1  ZINC001340305486    0.1100
     40 H40        -1.9194   -1.0860   45.3853 H       1  ZINC001340305486    0.1000
     41 H41        -0.3233   -0.3916   45.7645 H       1  ZINC001340305486    0.0900
     42 H42        -1.7637   -1.9311   47.9162 H       1  ZINC001340305486    0.0600
     43 H43        -0.9917   -2.8441   46.5980 H       1  ZINC001340305486    0.0800
     44 H44         0.3787   -2.2098   48.7782 H       1  ZINC001340305486    0.0700
     45 H45         1.1461   -2.1398   47.1765 H       1  ZINC001340305486    0.0800
     46 H46         1.6454   -0.0989   48.4613 H       1  ZINC001340305486    0.0900
     47 H47         0.6345    0.2882   47.0494 H       1  ZINC001340305486    0.0800
     48 H48        -0.7463   -0.3676   49.6410 H       1  ZINC001340305486    0.0900
     49 H49         0.0359    1.2242   49.4869 H       1  ZINC001340305486    0.1000
     50 H50        -6.4071    2.8221   54.7478 H       1  ZINC001340305486    0.0800
     51 H51        -6.1091    3.4234   53.0963 H       1  ZINC001340305486    0.1700
     52 H52        -8.3595    4.1088   54.0518 H       1  ZINC001340305486    0.1200
     53 H53        -8.4677    3.1981   52.5252 H       1  ZINC001340305486    0.0600
@<TRIPOS>BOND
     1     1     2    1
     2     1    29    1
     3     1    30    1
     4     1    31    1
     5     2     3   am
     6     2    32    1
     7     3     4    2
     8     3     5    1
     9     5     6    1
    10     5    28    1
    11     5     7    1
    12     7     8    1
    13     7    33    1
    14     7    34    1
    15     8     9   am
    16     8    26    1
    17     9    10    2
    18     9    11    1
    19    11    12    2
    20    11    13   am
    21    13    14    1
    22    13    35    1
    23    14    15    1
    24    14    36    1
    25    14    37    1
    26    15    16    1
    27    15    38    1
    28    15    39    1
    29    16    25    1
    30    16    17    2
    31    17    18    1
    32    18    19    2
    33    19    25    1
    34    19    20    1
    35    20    21    1
    36    20    40    1
    37    20    41    1
    38    21    22    1
    39    21    42    1
    40    21    43    1
    41    22    23    1
    42    22    44    1
    43    22    45    1
    44    23    24    1
    45    23    46    1
    46    23    47    1
    47    24    25    1
    48    24    48    1
    49    24    49    1
    50    26    27    1
    51    26    50    1
    52    26    51    1
    53    27    28    1
    54    27    52    1
    55    27    53    1
@<TRIPOS>SUBSTRUCTURE
     1 ZINC001340305486        1 TEMP              0 ****  ****    0 ROOT


##########                                Name:    ZINC000011620562
##########                DOCK_Rotatable_Bonds:                   9
##########                         Heavy_Atoms:                  29
##########                    Molecular_Weight:             417.448
##########                DOCK_Rotatable_Bonds:                   9
##########                       Formal_Charge:           0.0299999
##########                     HBond_Acceptors:                  12
##########                        HBond_Donors:                   1
##########                         Heavy_Atoms:                  29
##########                          Grid_Score:          -35.179066
##########                     Grid_vdw_energy:          -34.653488
##########                      Grid_es_energy:           -0.525576
##########           Internal_energy_repulsive:            8.293431

@<TRIPOS>MOLECULE
ZINC000011620562
 48 50 1 0 0
SMALL
USER_CHARGES


@<TRIPOS>ATOM
      1 C1         -5.1157    1.9069   51.7081 C.3     1  ZINC000011620562    0.0400
      2 O2         -5.6825    0.7648   51.0134 O.3     1  ZINC000011620562   -0.3500
      3 C3         -6.6620    0.0947   51.6406 C.2     1  ZINC000011620562    0.4600
      4 O4         -7.1455   -0.8874   51.1292 O.2     1  ZINC000011620562   -0.5000
      5 C5         -7.1585    0.5673   52.9827 C.3     1  ZINC000011620562    0.1300
      6 N6         -7.8555   -0.5294   53.6593 N.am    1  ZINC000011620562   -0.7200
      7 C7         -8.7959   -0.2600   54.5864 C.2     1  ZINC000011620562    0.5400
      8 O8         -9.0663    0.8904   54.8594 O.2     1  ZINC000011620562   -0.5200
      9 C9         -9.5115   -1.3881   55.2838 C.3     1  ZINC000011620562   -0.1600
     10 S10        -9.9830   -0.8643   56.9509 S.3     1  ZINC000011620562    0.1400
     11 C11       -10.1903   -2.4368   57.7184 C.2     1  ZINC000011620562    0.2100
     12 N12       -10.2626   -3.6011   57.1093 N.2     1  ZINC000011620562   -0.3400
     13 N13       -10.4136   -4.5473   57.9643 N.2     1  ZINC000011620562   -0.0300
     14 N14       -10.4486   -4.0695   59.1610 N.2     1  ZINC000011620562   -0.0800
     15 N15       -10.2994   -2.6762   59.0481 N.pl3   1  ZINC000011620562   -0.2600
     16 C16       -10.2756   -1.7313   60.0919 C.2     1  ZINC000011620562   -0.1300
     17 C17       -11.3554   -1.2080   60.7155 C.2     1  ZINC000011620562    0.2500
     18 C18       -12.7944   -1.5365   60.4118 C.3     1  ZINC000011620562   -0.1100
     19 N19       -10.9184   -0.3292   61.6698 N.pl3   1  ZINC000011620562   -0.3700
     20 C20       -11.7688    0.4526   62.5708 C.3     1  ZINC000011620562    0.0900
     21 N21        -9.5180   -0.3066   61.6369 N.am    1  ZINC000011620562   -0.3600
     22 C22        -8.6870    0.4646   62.4556 C.ar    1  ZINC000011620562    0.1400
     23 C23        -8.5454    1.8258   62.2184 C.ar    1  ZINC000011620562   -0.1300
     24 C24        -7.7244    2.5847   63.0291 C.ar    1  ZINC000011620562   -0.1000
     25 C25        -7.0436    1.9908   64.0761 C.ar    1  ZINC000011620562   -0.1100
     26 C26        -7.1821    0.6357   64.3147 C.ar    1  ZINC000011620562   -0.1000
     27 C27        -8.0061   -0.1278   63.5113 C.ar    1  ZINC000011620562   -0.1000
     28 C28        -9.1142   -1.1652   60.6786 C.2     1  ZINC000011620562    0.5500
     29 O29        -7.9617   -1.4056   60.3679 O.2     1  ZINC000011620562   -0.5000
     30 H30        -4.6869    1.5798   52.6554 H       1  ZINC000011620562    0.0700
     31 H31        -4.3366    2.3566   51.0926 H       1  ZINC000011620562    0.1100
     32 H32        -5.8982    2.6417   51.8979 H       1  ZINC000011620562    0.0700
     33 H33        -6.3128    0.8899   53.5900 H       1  ZINC000011620562    0.1200
     34 H34        -7.8449    1.4024   52.8427 H       1  ZINC000011620562    0.1200
     35 H35        -7.6401   -1.4494   53.4400 H       1  ZINC000011620562    0.4200
     36 H36       -10.4057   -1.6546   54.7202 H       1  ZINC000011620562    0.1400
     37 H37        -8.8510   -2.2529   55.3477 H       1  ZINC000011620562    0.1400
     38 H38       -12.8378   -2.2673   59.6043 H       1  ZINC000011620562    0.1000
     39 H39       -13.2685   -1.9500   61.3020 H       1  ZINC000011620562    0.1000
     40 H40       -13.3181   -0.6295   60.1095 H       1  ZINC000011620562    0.1000
     41 H41       -12.8165    0.2559   62.3433 H       1  ZINC000011620562    0.1100
     42 H42       -11.5616    0.1696   63.6028 H       1  ZINC000011620562    0.0900
     43 H43       -11.5610    1.5142   62.4364 H       1  ZINC000011620562    0.0900
     44 H44        -9.0765    2.2902   61.4006 H       1  ZINC000011620562    0.1300
     45 H45        -7.6135    3.6432   62.8449 H       1  ZINC000011620562    0.1300
     46 H46        -6.4022    2.5866   64.7086 H       1  ZINC000011620562    0.1300
     47 H47        -6.6485    0.1749   65.1328 H       1  ZINC000011620562    0.1400
     48 H48        -8.1140   -1.1859   63.6984 H       1  ZINC000011620562    0.1400
@<TRIPOS>BOND
     1     1     2    1
     2     1    30    1
     3     1    31    1
     4     1    32    1
     5     2     3    1
     6     3     4    2
     7     3     5    1
     8     5     6    1
     9     5    33    1
    10     5    34    1
    11     6     7   am
    12     6    35    1
    13     7     8    2
    14     7     9    1
    15     9    10    1
    16     9    36    1
    17     9    37    1
    18    10    11    1
    19    11    15    1
    20    11    12    2
    21    12    13    1
    22    13    14    2
    23    14    15    1
    24    15    16    1
    25    16    28    1
    26    16    17    2
    27    17    18    1
    28    17    19    1
    29    18    38    1
    30    18    39    1
    31    18    40    1
    32    19    20    1
    33    19    21    1
    34    20    41    1
    35    20    42    1
    36    20    43    1
    37    21    22    1
    38    21    28   am
    39    22    27   ar
    40    22    23   ar
    41    23    24   ar
    42    23    44    1
    43    24    25   ar
    44    24    45    1
    45    25    26   ar
    46    25    46    1
    47    26    27   ar
    48    26    47    1
    49    27    48    1
    50    28    29    2
@<TRIPOS>SUBSTRUCTURE
     1 ZINC000011620562        1 TEMP              0 ****  ****    0 ROOT


##########                                Name:    ZINC000342525234
##########                DOCK_Rotatable_Bonds:                   6
##########                         Heavy_Atoms:                  25
##########                    Molecular_Weight:             333.349
##########                DOCK_Rotatable_Bonds:                   6
##########                       Formal_Charge:           0.0500003
##########                     HBond_Acceptors:                   7
##########                        HBond_Donors:                   2
##########                         Heavy_Atoms:                  25
##########                          Grid_Score:          -35.164619
##########                     Grid_vdw_energy:          -33.342186
##########                      Grid_es_energy:           -1.822435
##########           Internal_energy_repulsive:            5.297578

@<TRIPOS>MOLECULE
ZINC000342525234
 40 43 1 0 0
SMALL
USER_CHARGES


@<TRIPOS>ATOM
      1 O1         -5.0552    3.0700   52.4479 O.2     1  <0>        -0.5100
      2 C2         -5.1314    2.0440   51.8016 C.2     1  <0>         0.6000
      3 N3         -4.3305    1.8594   50.7334 N.am    1  <0>        -0.7100
      4 C4         -3.3724    2.8985   50.3480 C.3     1  <0>         0.1200
      5 C5         -2.9789    2.7107   48.8814 C.3     1  <0>        -0.0900
      6 C6         -2.0442    1.5350   48.7587 C.ar    1  <0>        -0.0400
      7 C7         -2.3598    0.5278   47.9068 C.ar    1  <0>        -0.1000
      8 C8         -1.4918   -0.5786   47.7836 C.ar    1  <0>         0.1100
      9 N9         -1.5003   -1.6905   47.0712 N.2     1  <0>        -0.3100
     10 N10        -0.3507   -2.4307   47.3698 N.pl3   1  <0>        -0.4200
     11 C11         0.3890   -1.7801   48.2780 C.2     1  <0>         0.0900
     12 C12        -0.2624   -0.6016   48.5914 C.ar    1  <0>        -0.2100
     13 C13         0.0018    0.4812   49.4570 C.ar    1  <0>        -0.0400
     14 C14        -0.8740    1.5153   49.5211 C.ar    1  <0>        -0.1500
     15 C15        -6.1016    0.9918   52.1918 C.2     1  <0>        -0.0200
     16 N16        -6.3662   -0.1140   51.5400 N.2     1  <0>        -0.3200
     17 O17        -7.2043   -0.7773   52.1045 O.3     1  <0>         0.1400
     18 C18        -7.6239   -0.1897   53.2389 C.2     1  <0>         0.0100
     19 C19        -8.6369   -0.7084   54.1834 C.ar    1  <0>         0.0200
     20 C20        -8.8621   -0.0796   55.4134 C.ar    1  <0>        -0.1400
     21 C21        -9.8172   -0.5970   56.2639 C.ar    1  <0>         0.1100
     22 N22       -10.5120   -1.6680   55.9312 N.ar    1  <0>        -0.4800
     23 C23       -10.3314   -2.2908   54.7823 C.ar    1  <0>         0.1100
     24 C24        -9.4010   -1.8381   53.8697 C.ar    1  <0>        -0.1500
     25 C25        -6.9241    0.9790   53.3490 C.2     1  <0>        -0.1500
     26 H26        -4.3886    1.0386   50.2198 H       1  <0>         0.4100
     27 H27        -3.8282    3.8798   50.4792 H       1  <0>         0.0800
     28 H28        -2.4839    2.8239   50.9750 H       1  <0>         0.0800
     29 H29        -3.8732    2.5277   48.2859 H       1  <0>         0.0900
     30 H30        -2.4802    3.6106   48.5210 H       1  <0>         0.0800
     31 H31        -3.2696    0.5718   47.3267 H       1  <0>         0.1300
     32 H32        -0.1230   -3.2880   46.9775 H       1  <0>         0.4500
     33 H33         1.3277   -2.1168   48.6924 H       1  <0>         0.1900
     34 H34         0.8973    0.4889   50.0608 H       1  <0>         0.1300
     35 H35        -0.6652    2.3408   50.1854 H       1  <0>         0.1200
     36 H36        -8.2966    0.7971   55.6925 H       1  <0>         0.1400
     37 H37        -9.9984   -0.1189   57.2153 H       1  <0>         0.1700
     38 H38       -10.9228   -3.1644   54.5514 H       1  <0>         0.1700
     39 H39        -9.2585   -2.3530   52.9310 H       1  <0>         0.1500
     40 H40        -6.9867    1.7222   54.1301 H       1  <0>         0.1900
@<TRIPOS>BOND
     1     1     2    2
     2     2     3   am
     3     2    15    1
     4     3     4    1
     5     3    26    1
     6     4     5    1
     7     4    27    1
     8     4    28    1
     9     5     6    1
    10     5    29    1
    11     5    30    1
    12     6    14   ar
    13     6     7   ar
    14     7     8   ar
    15     7    31    1
    16     8    12   ar
    17     8     9    2
    18     9    10    1
    19    10    11    1
    20    10    32    1
    21    11    12    2
    22    11    33    1
    23    12    13   ar
    24    13    14   ar
    25    13    34    1
    26    14    35    1
    27    15    25    1
    28    15    16    2
    29    16    17    1
    30    17    18    1
    31    18    19    1
    32    18    25    2
    33    19    24   ar
    34    19    20   ar
    35    20    21   ar
    36    20    36    1
    37    21    22   ar
    38    21    37    1
    39    22    23   ar
    40    23    24   ar
    41    23    38    1
    42    24    39    1
    43    25    40    1
@<TRIPOS>SUBSTRUCTURE
     1 <0>         1 TEMP              0 ****  ****    0 ROOT


##########                                Name:    ZINC000465642058
##########                DOCK_Rotatable_Bonds:                  10
##########                         Heavy_Atoms:                  31
##########                    Molecular_Weight:             420.511
##########                DOCK_Rotatable_Bonds:                  10
##########                       Formal_Charge:          1.2666e-07
##########                     HBond_Acceptors:                   7
##########                        HBond_Donors:                   2
##########                         Heavy_Atoms:                  31
##########                          Grid_Score:          -35.158928
##########                     Grid_vdw_energy:          -34.177437
##########                      Grid_es_energy:           -0.981490
##########           Internal_energy_repulsive:           16.907598

@<TRIPOS>MOLECULE
ZINC000465642058
 59 62 1 0 0
SMALL
USER_CHARGES


@<TRIPOS>ATOM
      1 C1         -8.4466   -0.6149   60.7331 C.3     1  ZINC000465642058   -0.1500
      2 C2         -8.1113   -0.4149   59.2537 C.3     1  ZINC000465642058    0.0500
      3 O3         -9.3205   -0.2653   58.5072 O.3     1  ZINC000465642058   -0.3000
      4 C4         -9.2930   -0.6513   57.2035 C.ar    1  ZINC000465642058    0.1200
      5 C5         -8.6449    0.1310   56.2581 C.ar    1  ZINC000465642058   -0.1600
      6 C6         -8.6189   -0.2652   54.9392 C.ar    1  ZINC000465642058   -0.1300
      7 C7         -9.2294   -1.4462   54.5385 C.ar    1  ZINC000465642058    0.0700
      8 C8         -9.8823   -2.2247   55.4910 C.ar    1  ZINC000465642058   -0.0700
      9 C9         -9.9075   -1.8319   56.8127 C.ar    1  ZINC000465642058   -0.1100
     10 C10       -10.6164   -2.6826   57.8348 C.3     1  ZINC000465642058    0.1900
     11 N11       -12.0578   -2.6595   57.5743 N.am    1  ZINC000465642058   -0.7300
     12 C12       -12.9264   -2.5569   58.5997 C.2     1  ZINC000465642058    0.7100
     13 O13       -12.5136   -2.4850   59.7411 O.2     1  ZINC000465642058   -0.5900
     14 N14       -14.2524   -2.5340   58.3600 N.am    1  ZINC000465642058   -0.6200
     15 C15       -14.7497   -2.6187   56.9845 C.3     1  ZINC000465642058    0.1900
     16 C16       -14.5567   -4.0205   56.4662 C.2     1  ZINC000465642058    0.0500
     17 N17       -13.8718   -4.9682   57.0534 N.2     1  ZINC000465642058   -0.2700
     18 N18       -13.9370   -6.1158   56.2527 N.pl3   1  ZINC000465642058   -0.4700
     19 C19       -14.6835   -5.8230   55.1673 C.2     1  ZINC000465642058    0.0600
     20 C20       -15.0839   -4.5351   55.2772 C.2     1  ZINC000465642058   -0.2600
     21 C21       -15.1966   -2.4242   59.4748 C.3     1  ZINC000465642058    0.1700
     22 C22       -15.1398   -1.0307   60.0458 C.ar    1  ZINC000465642058   -0.1100
     23 C23       -14.3146   -0.7574   61.1206 C.ar    1  ZINC000465642058   -0.0900
     24 C24       -14.2625    0.5208   61.6444 C.ar    1  ZINC000465642058   -0.1200
     25 C25       -15.0353    1.5257   61.0933 C.ar    1  ZINC000465642058   -0.1200
     26 C26       -15.8598    1.2526   60.0179 C.ar    1  ZINC000465642058   -0.1300
     27 C27       -15.9086   -0.0246   59.4913 C.ar    1  ZINC000465642058   -0.1100
     28 O28        -9.0652   -1.6574   53.2026 O.3     1  ZINC000465642058   -0.3000
     29 C29        -8.7211   -0.4150   52.5661 C.3     1  ZINC000465642058    0.0800
     30 H30        -9.6169    0.1103   52.2349 H       1  ZINC000465642058    0.0900
     31 C31        -7.7694   -0.6529   51.3919 C.3     1  ZINC000465642058   -0.1500
     32 C32        -8.0152    0.3662   53.6994 C.3     1  ZINC000465642058   -0.1100
     33 H33        -9.0583   -1.5096   60.8492 H       1  ZINC000465642058    0.0700
     34 H34        -7.5242   -0.7289   61.3025 H       1  ZINC000465642058    0.0800
     35 H35        -8.9963    0.2513   61.1014 H       1  ZINC000465642058    0.0700
     36 H36        -7.4997    0.4799   59.1375 H       1  ZINC000465642058    0.0600
     37 H37        -7.5616   -1.2811   58.8854 H       1  ZINC000465642058    0.0600
     38 H38        -8.1617    1.0499   56.5561 H       1  ZINC000465642058    0.1300
     39 H39       -10.3675   -3.1428   55.1939 H       1  ZINC000465642058    0.1400
     40 H40       -10.2518   -3.7078   57.7700 H       1  ZINC000465642058    0.0700
     41 H41       -10.4211   -2.2899   58.8327 H       1  ZINC000465642058    0.0800
     42 H42       -12.3872   -2.7180   56.6638 H       1  ZINC000465642058    0.4000
     43 H43       -15.8100   -2.3671   56.9654 H       1  ZINC000465642058    0.1000
     44 H44       -14.1988   -1.9196   56.3553 H       1  ZINC000465642058    0.0900
     45 H45       -13.5193   -6.9699   56.4446 H       1  ZINC000465642058    0.4400
     46 H46       -14.9223   -6.4972   54.3580 H       1  ZINC000465642058    0.1800
     47 H47       -15.6969   -3.9976   54.5688 H       1  ZINC000465642058    0.1500
     48 H48       -16.2058   -2.6297   59.1178 H       1  ZINC000465642058    0.0900
     49 H49       -14.9310   -3.1449   60.2482 H       1  ZINC000465642058    0.0900
     50 H50       -13.7109   -1.5425   61.5513 H       1  ZINC000465642058    0.1300
     51 H51       -13.6183    0.7342   62.4847 H       1  ZINC000465642058    0.1200
     52 H52       -14.9950    2.5242   61.5030 H       1  ZINC000465642058    0.1200
     53 H53       -16.4638    2.0376   59.5874 H       1  ZINC000465642058    0.1200
     54 H54       -16.5528   -0.2380   58.6512 H       1  ZINC000465642058    0.1200
     55 H55        -8.2599   -1.2807   50.6481 H       1  ZINC000465642058    0.0700
     56 H56        -7.5021    0.3030   50.9415 H       1  ZINC000465642058    0.0800
     57 H57        -6.8681   -1.1505   51.7499 H       1  ZINC000465642058    0.0700
     58 H58        -8.2539    1.4284   53.6477 H       1  ZINC000465642058    0.0900
     59 H59        -6.9370    0.2089   53.6679 H       1  ZINC000465642058    0.1000
@<TRIPOS>BOND
     1     1     2    1
     2     1    33    1
     3     1    34    1
     4     1    35    1
     5     2     3    1
     6     2    36    1
     7     2    37    1
     8     3     4    1
     9     4     9   ar
    10     4     5   ar
    11     5     6   ar
    12     5    38    1
    13     6    32    1
    14     6     7   ar
    15     7     8   ar
    16     7    28    1
    17     8     9   ar
    18     8    39    1
    19     9    10    1
    20    10    11    1
    21    10    40    1
    22    10    41    1
    23    11    12   am
    24    11    42    1
    25    12    13    2
    26    12    14   am
    27    14    15    1
    28    14    21    1
    29    15    16    1
    30    15    43    1
    31    15    44    1
    32    16    20    1
    33    16    17    2
    34    17    18    1
    35    18    19    1
    36    18    45    1
    37    19    20    2
    38    19    46    1
    39    20    47    1
    40    21    22    1
    41    21    48    1
    42    21    49    1
    43    22    27   ar
    44    22    23   ar
    45    23    24   ar
    46    23    50    1
    47    24    25   ar
    48    24    51    1
    49    25    26   ar
    50    25    52    1
    51    26    27   ar
    52    26    53    1
    53    27    54    1
    54    28    29    1
    55    29    30    1
    56    29    31    1
    57    29    32    1
    58    31    55    1
    59    31    56    1
    60    31    57    1
    61    32    58    1
    62    32    59    1
@<TRIPOS>SUBSTRUCTURE
     1 ZINC000465642058        1 TEMP              0 ****  ****    0 ROOT


##########                                Name:    ZINC000185180600
##########                DOCK_Rotatable_Bonds:                   7
##########                         Heavy_Atoms:                  26
##########                    Molecular_Weight:             395.953
##########                DOCK_Rotatable_Bonds:                   7
##########                       Formal_Charge:          0.00999977
##########                     HBond_Acceptors:                   7
##########                        HBond_Donors:                   0
##########                         Heavy_Atoms:                  26
##########                          Grid_Score:          -35.054707
##########                     Grid_vdw_energy:          -35.419582
##########                      Grid_es_energy:            0.364877
##########           Internal_energy_repulsive:           28.385042

@<TRIPOS>MOLECULE
ZINC000185180600
 52 53 1 0 0
SMALL
USER_CHARGES


@<TRIPOS>ATOM
      1 C1         -7.9016    1.0576   56.6023 C.3     1  ZINC000185180600   -0.1500
      2 C2         -9.3399    1.5713   56.5106 C.3     1  ZINC000185180600   -0.0900
      3 C3         -9.3282    3.0595   56.1557 C.3     1  ZINC000185180600   -0.1500
      4 C4        -10.0908    0.7945   55.4273 C.3     1  ZINC000185180600   -0.1300
      5 C5         -9.5660    1.2039   54.0498 C.3     1  ZINC000185180600    0.1300
      6 H6         -8.6113    1.7175   54.1626 H       1  ZINC000185180600    0.1100
      7 C7        -10.5726    2.1402   53.3781 C.3     1  ZINC000185180600   -0.1600
      8 N8         -9.3829    0.0091   53.2220 N.am    1  ZINC000185180600   -0.6000
      9 C9        -10.4728   -0.9601   53.0834 C.3     1  ZINC000185180600    0.0700
     10 C10        -8.2119   -0.1986   52.5881 C.2     1  ZINC000185180600    0.5400
     11 O11        -8.0609   -1.1871   51.9017 O.2     1  ZINC000185180600   -0.5300
     12 C12        -7.0900    0.7973   52.7320 C.3     1  ZINC000185180600   -0.5000
     13 S13        -5.9215    0.5943   51.3594 S.o     1  ZINC000185180600    1.3200
     14 O14        -5.3280   -0.6949   51.4293 O.2     1  ZINC000185180600   -0.8000
     15 C15        -4.6656    1.8575   51.7026 C.3     1  ZINC000185180600   -0.3900
     16 C16        -3.6056    1.8158   50.6323 C.2     1  ZINC000185180600    0.1000
     17 N17        -3.7878    1.4609   49.3858 N.2     1  ZINC000185180600   -0.2800
     18 N18        -2.5596    1.5578   48.7188 N.pl3   1  ZINC000185180600   -0.3200
     19 C19        -2.3293    1.2653   47.3670 C.ar    1  ZINC000185180600    0.1700
     20 C20        -2.3686    2.2795   46.4197 C.ar    1  ZINC000185180600   -0.1300
     21 C21        -2.1415    1.9890   45.0888 C.ar    1  ZINC000185180600   -0.0800
     22 C22        -1.8754    0.6880   44.6990 C.ar    1  ZINC000185180600   -0.0500
     23 Cl23       -1.5904    0.3259   43.0253 Cl      1  ZINC000185180600   -0.0600
     24 C24        -1.8357   -0.3246   45.6415 C.ar    1  ZINC000185180600   -0.0800
     25 C25        -2.0561   -0.0380   46.9744 C.ar    1  ZINC000185180600   -0.1100
     26 C26        -1.6356    1.9832   49.6096 C.2     1  ZINC000185180600    0.0600
     27 C27        -2.2587    2.1558   50.7985 C.2     1  ZINC000185180600   -0.2500
     28 H28        -7.3666    1.6110   57.3741 H       1  ZINC000185180600    0.0500
     29 H29        -7.9098   -0.0026   56.8551 H       1  ZINC000185180600    0.0600
     30 H30        -7.4037    1.1985   55.6430 H       1  ZINC000185180600    0.0500
     31 H31        -9.8378    1.4305   57.4700 H       1  ZINC000185180600    0.0700
     32 H32        -8.8664    3.6229   56.9666 H       1  ZINC000185180600    0.0500
     33 H33        -8.7587    3.2099   55.2385 H       1  ZINC000185180600    0.0500
     34 H34       -10.3512    3.4061   56.0092 H       1  ZINC000185180600    0.0500
     35 H35        -9.9349   -0.2744   55.5726 H       1  ZINC000185180600    0.0700
     36 H36       -11.1556    1.0185   55.4917 H       1  ZINC000185180600    0.0800
     37 H37       -11.5274    1.6266   53.2653 H       1  ZINC000185180600    0.0600
     38 H38       -10.7087    3.0292   53.9940 H       1  ZINC000185180600    0.0700
     39 H39       -10.1987    2.4319   52.3966 H       1  ZINC000185180600    0.0600
     40 H40       -11.0950   -0.6876   52.2309 H       1  ZINC000185180600    0.0600
     41 H41       -10.0565   -1.9550   52.9261 H       1  ZINC000185180600    0.0700
     42 H42       -11.0779   -0.9585   53.9900 H       1  ZINC000185180600    0.0800
     43 H43        -7.4973    1.8082   52.7161 H       1  ZINC000185180600    0.1500
     44 H44        -6.5734    0.6285   53.6769 H       1  ZINC000185180600    0.1200
     45 H45        -5.1335    2.8419   51.7124 H       1  ZINC000185180600    0.1400
     46 H46        -4.2096    1.6622   52.6732 H       1  ZINC000185180600    0.1000
     47 H47        -2.5769    3.2948   46.7233 H       1  ZINC000185180600    0.1400
     48 H48        -2.1720    2.7776   44.3515 H       1  ZINC000185180600    0.1500
     49 H49        -1.6282   -1.3392   45.3348 H       1  ZINC000185180600    0.1400
     50 H50        -2.0250   -0.8286   47.7094 H       1  ZINC000185180600    0.1500
     51 H51        -0.5892    2.1584   49.4075 H       1  ZINC000185180600    0.1800
     52 H52        -1.7961    2.4897   51.7155 H       1  ZINC000185180600    0.1700
@<TRIPOS>BOND
     1     1     2    1
     2     1    28    1
     3     1    29    1
     4     1    30    1
     5     2     3    1
     6     2     4    1
     7     2    31    1
     8     3    32    1
     9     3    33    1
    10     3    34    1
    11     4     5    1
    12     4    35    1
    13     4    36    1
    14     5     6    1
    15     5     7    1
    16     5     8    1
    17     7    37    1
    18     7    38    1
    19     7    39    1
    20     8     9    1
    21     8    10   am
    22     9    40    1
    23     9    41    1
    24     9    42    1
    25    10    11    2
    26    10    12    1
    27    12    13    1
    28    12    43    1
    29    12    44    1
    30    13    14    2
    31    13    15    1
    32    15    16    1
    33    15    45    1
    34    15    46    1
    35    16    27    1
    36    16    17    2
    37    17    18    1
    38    18    19    1
    39    18    26    1
    40    19    25   ar
    41    19    20   ar
    42    20    21   ar
    43    20    47    1
    44    21    22   ar
    45    21    48    1
    46    22    23    1
    47    22    24   ar
    48    24    25   ar
    49    24    49    1
    50    25    50    1
    51    26    27    2
    52    26    51    1
    53    27    52    1
@<TRIPOS>SUBSTRUCTURE
     1 ZINC000185180600        1 TEMP              0 ****  ****    0 ROOT


##########                                Name:    ZINC000509132103
##########                DOCK_Rotatable_Bonds:                   7
##########                         Heavy_Atoms:                  29
##########                    Molecular_Weight:              405.52
##########                DOCK_Rotatable_Bonds:                   7
##########                       Formal_Charge:          -0.0499998
##########                     HBond_Acceptors:                   6
##########                        HBond_Donors:                   0
##########                         Heavy_Atoms:                  29
##########                          Grid_Score:          -35.023384
##########                     Grid_vdw_energy:          -34.903984
##########                      Grid_es_energy:           -0.119399
##########           Internal_energy_repulsive:           16.904951

@<TRIPOS>MOLECULE
ZINC000509132103
 52 55 1 0 0
SMALL
USER_CHARGES


@<TRIPOS>ATOM
      1 C1         -9.8993   -1.0516   51.4115 C.3     1  ZINC000509132103    0.0300
      2 O2         -8.5339   -1.1898   51.0129 O.3     1  ZINC000509132103   -0.3000
      3 C3         -7.6623   -0.2535   51.4656 C.ar    1  ZINC000509132103    0.2700
      4 C4         -8.1096    0.7802   52.2841 C.ar    1  ZINC000509132103   -0.1300
      5 C5         -7.1797    1.7119   52.7204 C.ar    1  ZINC000509132103   -0.0700
      6 C6         -5.8622    1.5569   52.3148 C.ar    1  ZINC000509132103    0.0500
      7 C7         -4.8145    2.5431   52.7630 C.3     1  ZINC000509132103   -0.0500
      8 S8         -4.6736    3.8739   51.5384 S.3     1  ZINC000509132103   -0.1500
      9 C9         -3.7682    3.0839   50.1795 C.3     1  ZINC000509132103   -0.1300
     10 C10        -2.2911    3.1116   50.4770 C.2     1  ZINC000509132103    0.5400
     11 O11        -1.8872    3.6328   51.4949 O.2     1  ZINC000509132103   -0.5100
     12 N12        -1.4189    2.5572   49.6119 N.am    1  ZINC000509132103   -0.6100
     13 C13        -1.8753    1.9192   48.3724 C.3     1  ZINC000509132103    0.1500
     14 C14        -1.1520    0.6100   48.1790 C.ar    1  ZINC000509132103   -0.1000
     15 C15        -1.6209   -0.2498   47.1957 C.ar    1  ZINC000509132103   -0.1100
     16 C16        -0.9947   -1.4576   46.9645 C.ar    1  ZINC000509132103   -0.1200
     17 C17         0.1088   -1.8126   47.7174 C.ar    1  ZINC000509132103   -0.1200
     18 C18         0.5734   -0.9605   48.6978 C.ar    1  ZINC000509132103   -0.1100
     19 C19        -0.0587    0.2534   48.9368 C.ar    1  ZINC000509132103   -0.0600
     20 C20         0.4878    1.1197   50.0409 C.3     1  ZINC000509132103   -0.0200
     21 H21         0.1362    0.7414   51.0007 H       1  ZINC000509132103    0.1000
     22 C22         1.9937    1.0704   50.0104 C.ar    1  ZINC000509132103   -0.0800
     23 C23         2.6909    0.5698   51.0939 C.ar    1  ZINC000509132103   -0.1100
     24 C24         4.0723    0.5245   51.0658 C.ar    1  ZINC000509132103   -0.1200
     25 C25         4.7563    0.9795   49.9541 C.ar    1  ZINC000509132103   -0.1200
     26 C26         4.0589    1.4792   48.8703 C.ar    1  ZINC000509132103   -0.1200
     27 C27         2.6775    1.5205   48.8965 C.ar    1  ZINC000509132103   -0.1100
     28 C28         0.0304    2.5731   49.8703 C.3     1  ZINC000509132103    0.1200
     29 N29        -5.5268    0.5461   51.5376 N.ar    1  ZINC000509132103   -0.1900
     30 N30        -6.3824   -0.3221   51.1355 N.ar    1  ZINC000509132103   -0.3000
     31 H31       -10.2861   -0.0960   51.0576 H       1  ZINC000509132103    0.0600
     32 H32       -10.4870   -1.8630   50.9820 H       1  ZINC000509132103    0.1000
     33 H33        -9.9662   -1.0905   52.4987 H       1  ZINC000509132103    0.0600
     34 H34        -9.1485    0.8543   52.5700 H       1  ZINC000509132103    0.1600
     35 H35        -7.4725    2.5339   53.3566 H       1  ZINC000509132103    0.1600
     36 H36        -5.1009    2.9648   53.7264 H       1  ZINC000509132103    0.1100
     37 H37        -3.8550    2.0351   52.8595 H       1  ZINC000509132103    0.1000
     38 H38        -4.0985    2.0504   50.0752 H       1  ZINC000509132103    0.1100
     39 H39        -3.9622    3.6227   49.2520 H       1  ZINC000509132103    0.1100
     40 H40        -2.9480    1.7353   48.4327 H       1  ZINC000509132103    0.1000
     41 H41        -1.6675    2.5766   47.5282 H       1  ZINC000509132103    0.0900
     42 H42        -2.4827    0.0284   46.6072 H       1  ZINC000509132103    0.1200
     43 H43        -1.3650   -2.1225   46.1983 H       1  ZINC000509132103    0.1300
     44 H44         0.6056   -2.7547   47.5389 H       1  ZINC000509132103    0.1200
     45 H45         1.4358   -1.2396   49.2849 H       1  ZINC000509132103    0.1200
     46 H46         2.1565    0.2143   51.9625 H       1  ZINC000509132103    0.1200
     47 H47         4.6171    0.1340   51.9127 H       1  ZINC000509132103    0.1200
     48 H48         5.8355    0.9448   49.9324 H       1  ZINC000509132103    0.1200
     49 H49         4.5934    1.8350   48.0017 H       1  ZINC000509132103    0.1200
     50 H50         2.1326    1.9111   48.0497 H       1  ZINC000509132103    0.1200
     51 H51         0.5549    3.0285   49.0302 H       1  ZINC000509132103    0.0800
     52 H52         0.2361    3.1339   50.7821 H       1  ZINC000509132103    0.1000
@<TRIPOS>BOND
     1     1     2    1
     2     1    31    1
     3     1    32    1
     4     1    33    1
     5     2     3    1
     6     3    30   ar
     7     3     4   ar
     8     4     5   ar
     9     4    34    1
    10     5     6   ar
    11     5    35    1
    12     6     7    1
    13     6    29   ar
    14     7     8    1
    15     7    36    1
    16     7    37    1
    17     8     9    1
    18     9    10    1
    19     9    38    1
    20     9    39    1
    21    10    11    2
    22    10    12   am
    23    12    28    1
    24    12    13    1
    25    13    14    1
    26    13    40    1
    27    13    41    1
    28    14    19   ar
    29    14    15   ar
    30    15    16   ar
    31    15    42    1
    32    16    17   ar
    33    16    43    1
    34    17    18   ar
    35    17    44    1
    36    18    19   ar
    37    18    45    1
    38    19    20    1
    39    20    21    1
    40    20    22    1
    41    20    28    1
    42    22    27   ar
    43    22    23   ar
    44    23    24   ar
    45    23    46    1
    46    24    25   ar
    47    24    47    1
    48    25    26   ar
    49    25    48    1
    50    26    27   ar
    51    26    49    1
    52    27    50    1
    53    28    51    1
    54    28    52    1
    55    29    30   ar
@<TRIPOS>SUBSTRUCTURE
     1 ZINC000509132103        1 TEMP              0 ****  ****    0 ROOT


##########                                Name:    ZINC000474368324
##########                DOCK_Rotatable_Bonds:                   9
##########                         Heavy_Atoms:                  27
##########                    Molecular_Weight:             417.332
##########                DOCK_Rotatable_Bonds:                   9
##########                       Formal_Charge:        -1.63913e-07
##########                     HBond_Acceptors:                   8
##########                        HBond_Donors:                   1
##########                         Heavy_Atoms:                  27
##########                          Grid_Score:          -35.002094
##########                     Grid_vdw_energy:          -35.003407
##########                      Grid_es_energy:            0.001311
##########           Internal_energy_repulsive:           30.596262

@<TRIPOS>MOLECULE
ZINC000474368324
 53 54 1 0 0
SMALL
USER_CHARGES


@<TRIPOS>ATOM
      1 C1        -13.1952    1.6158   52.4774 C.3     1  ZINC000474368324   -0.1500
      2 C2        -12.4134    0.3387   52.1633 C.3     1  ZINC000474368324    0.0600
      3 O3        -11.0067    0.6598   52.0013 O.3     1  ZINC000474368324   -0.3300
      4 C4        -10.1780   -0.3574   51.7180 C.2     1  ZINC000474368324    0.4700
      5 O5        -10.5849   -1.3149   51.1035 O.2     1  ZINC000474368324   -0.5100
      6 C6         -8.7402   -0.3053   52.1665 C.3     1  ZINC000474368324   -0.0400
      7 C7         -8.4566   -1.4788   53.1065 C.3     1  ZINC000474368324    0.0600
      8 O8         -9.6882   -2.1038   53.4732 O.3     1  ZINC000474368324   -0.3700
      9 C9        -10.2990   -1.5456   54.6382 C.3     1  ZINC000474368324    0.0300
     10 C10        -7.8218   -0.3970   50.9457 C.3     1  ZINC000474368324   -0.1200
     11 C11        -6.3614   -0.3786   51.4079 C.3     1  ZINC000474368324    0.1100
     12 N12        -6.1433    0.8132   52.2390 N.am    1  ZINC000474368324   -0.6300
     13 C13        -5.1491    1.6770   51.9534 C.2     1  ZINC000474368324    0.7100
     14 O14        -4.9789    2.6597   52.6489 O.2     1  ZINC000474368324   -0.5800
     15 N15        -4.3432    1.4516   50.8968 N.am    1  ZINC000474368324   -0.7400
     16 C16        -3.2624    2.3905   50.5863 C.3     1  ZINC000474368324    0.2000
     17 H17        -2.9800    2.9311   51.4897 H       1  ZINC000474368324    0.1100
     18 C18        -3.7394    3.3845   49.5254 C.3     1  ZINC000474368324   -0.1600
     19 C19        -2.0713    1.6301   50.0629 C.ar    1  ZINC000474368324   -0.0700
     20 C20        -2.1583    0.9506   48.8626 C.ar    1  ZINC000474368324   -0.1000
     21 C21        -1.0658    0.2531   48.3813 C.ar    1  ZINC000474368324   -0.0900
     22 C22         0.1144    0.2346   49.1000 C.ar    1  ZINC000474368324   -0.1000
     23 C23         0.2034    0.9142   50.3017 C.ar    1  ZINC000474368324   -0.0300
     24 Cl24        1.6858    0.8913   51.2048 Cl      1  ZINC000474368324   -0.0400
     25 C25        -0.8889    1.6170   50.7810 C.ar    1  ZINC000474368324   -0.0300
     26 Cl26       -0.7788    2.4709   52.2885 Cl      1  ZINC000474368324   -0.0400
     27 C27        -7.0302    1.0457   53.3871 C.3     1  ZINC000474368324    0.1300
     28 C28        -8.4832    1.0114   52.9027 C.3     1  ZINC000474368324   -0.1200
     29 H29       -14.2512    1.3746   52.5990 H       1  ZINC000474368324    0.0800
     30 H30       -12.8150    2.0573   53.3985 H       1  ZINC000474368324    0.0700
     31 H31       -13.0765    2.3251   51.6584 H       1  ZINC000474368324    0.0700
     32 H32       -12.5321   -0.3707   52.9824 H       1  ZINC000474368324    0.0700
     33 H33       -12.7937   -0.1029   51.2422 H       1  ZINC000474368324    0.0700
     34 H34        -7.8180   -2.2031   52.6010 H       1  ZINC000474368324    0.0700
     35 H35        -7.9537   -1.1135   54.0020 H       1  ZINC000474368324    0.0600
     36 H36        -9.6222   -1.6458   55.4868 H       1  ZINC000474368324    0.0400
     37 H37       -10.5125   -0.4905   54.4664 H       1  ZINC000474368324    0.0400
     38 H38       -11.2283   -2.0743   54.8502 H       1  ZINC000474368324    0.0900
     39 H39        -8.0218   -1.3242   50.4087 H       1  ZINC000474368324    0.1000
     40 H40        -8.0058    0.4521   50.2875 H       1  ZINC000474368324    0.0800
     41 H41        -6.1516   -1.2747   51.9920 H       1  ZINC000474368324    0.0800
     42 H42        -5.7036   -0.3437   50.5394 H       1  ZINC000474368324    0.0800
     43 H43        -4.4790    0.6676   50.3420 H       1  ZINC000474368324    0.3900
     44 H44        -4.0218    2.8439   48.6220 H       1  ZINC000474368324    0.0600
     45 H45        -4.6010    3.9345   49.9040 H       1  ZINC000474368324    0.0700
     46 H46        -2.9352    4.0831   49.2944 H       1  ZINC000474368324    0.0700
     47 H47        -3.0804    0.9642   48.3003 H       1  ZINC000474368324    0.1300
     48 H48        -1.1350   -0.2779   47.4433 H       1  ZINC000474368324    0.1400
     49 H49         0.9674   -0.3108   48.7237 H       1  ZINC000474368324    0.1500
     50 H50        -6.8750    0.2658   54.1326 H       1  ZINC000474368324    0.0700
     51 H51        -6.8139    2.0204   53.8245 H       1  ZINC000474368324    0.1100
     52 H52        -8.6609    1.8473   52.2261 H       1  ZINC000474368324    0.0900
     53 H53        -9.1539    1.0867   53.7586 H       1  ZINC000474368324    0.0900
@<TRIPOS>BOND
     1     1     2    1
     2     1    29    1
     3     1    30    1
     4     1    31    1
     5     2     3    1
     6     2    32    1
     7     2    33    1
     8     3     4    1
     9     4     5    2
    10     4     6    1
    11     6    28    1
    12     6     7    1
    13     6    10    1
    14     7     8    1
    15     7    34    1
    16     7    35    1
    17     8     9    1
    18     9    36    1
    19     9    37    1
    20     9    38    1
    21    10    11    1
    22    10    39    1
    23    10    40    1
    24    11    12    1
    25    11    41    1
    26    11    42    1
    27    12    13   am
    28    12    27    1
    29    13    14    2
    30    13    15   am
    31    15    16    1
    32    15    43    1
    33    16    17    1
    34    16    18    1
    35    16    19    1
    36    18    44    1
    37    18    45    1
    38    18    46    1
    39    19    25   ar
    40    19    20   ar
    41    20    21   ar
    42    20    47    1
    43    21    22   ar
    44    21    48    1
    45    22    23   ar
    46    22    49    1
    47    23    24    1
    48    23    25   ar
    49    25    26    1
    50    27    28    1
    51    27    50    1
    52    27    51    1
    53    28    52    1
    54    28    53    1
@<TRIPOS>SUBSTRUCTURE
     1 ZINC000474368324        1 TEMP              0 ****  ****    0 ROOT


##########                                Name:    ZINC000484900616
##########                DOCK_Rotatable_Bonds:                  10
##########                         Heavy_Atoms:                  29
##########                    Molecular_Weight:             415.556
##########                DOCK_Rotatable_Bonds:                  10
##########                       Formal_Charge:        -1.49012e-08
##########                     HBond_Acceptors:                   7
##########                        HBond_Donors:                   1
##########                         Heavy_Atoms:                  29
##########                          Grid_Score:          -34.985600
##########                     Grid_vdw_energy:          -33.629723
##########                      Grid_es_energy:           -1.355877
##########           Internal_energy_repulsive:           11.982066

@<TRIPOS>MOLECULE
ZINC000484900616
 58 60 1 0 0
SMALL
USER_CHARGES


@<TRIPOS>ATOM
      1 C1         -2.2689    2.3037   45.4884 C.3     1  ZINC000484900616   -0.1500
      2 C2         -2.2136    0.7756   45.4364 C.3     1  ZINC000484900616    0.0600
      3 O3         -1.0445    0.3591   44.6828 O.3     1  ZINC000484900616   -0.3400
      4 C4          0.1605    0.6554   45.2094 C.2     1  ZINC000484900616    0.5500
      5 O5          0.9882    1.2428   44.5406 O.2     1  ZINC000484900616   -0.5000
      6 C6          0.4738    0.2678   46.5936 C.2     1  ZINC000484900616    0.0200
      7 C7          0.1418   -0.9339   47.1186 C.2     1  ZINC000484900616   -0.2400
      8 S8          0.6785   -0.9944   48.7405 S.3     1  ZINC000484900616    0.2900
      9 C9          1.3145    0.5863   48.6246 C.2     1  ZINC000484900616    0.0300
     10 C10         2.0140    1.3139   49.7437 C.3     1  ZINC000484900616    0.1500
     11 H11         2.2202    0.6317   50.5684 H       1  ZINC000484900616    0.0900
     12 C12         3.3285    1.9541   49.2320 C.3     1  ZINC000484900616   -0.1200
     13 C13         3.5354    3.1036   50.2532 C.3     1  ZINC000484900616   -0.1400
     14 C14         2.0945    3.5715   50.5467 C.3     1  ZINC000484900616    0.0500
     15 N15         1.1934    2.4519   50.2100 N.3     1  ZINC000484900616   -0.5100
     16 C16         0.3694    2.0733   51.3656 C.3     1  ZINC000484900616    0.0300
     17 C17        -0.8687    2.9318   51.4026 C.2     1  ZINC000484900616    0.5200
     18 O18        -0.7821    4.1092   51.6803 O.2     1  ZINC000484900616   -0.5100
     19 N19        -2.0720    2.3911   51.1271 N.am    1  ZINC000484900616   -0.7300
     20 C20        -3.2754    3.2260   51.1614 C.3     1  ZINC000484900616    0.1900
     21 H21        -3.1269    4.0489   51.8605 H       1  ZINC000484900616    0.1000
     22 C22        -3.5469    3.7867   49.7639 C.3     1  ZINC000484900616   -0.1600
     23 C23        -4.4511    2.3948   51.6062 C.ar    1  ZINC000484900616   -0.1000
     24 C24        -4.8362    1.2913   50.8680 C.ar    1  ZINC000484900616   -0.1100
     25 C25        -5.9147    0.5289   51.2761 C.ar    1  ZINC000484900616   -0.1100
     26 C26        -6.6077    0.8696   52.4226 C.ar    1  ZINC000484900616   -0.0800
     27 C27        -7.7837    0.0387   52.8672 C.3     1  ZINC000484900616   -0.0900
     28 C28        -8.8706    0.0762   51.7911 C.3     1  ZINC000484900616   -0.1500
     29 C29        -6.2217    1.9723   53.1615 C.ar    1  ZINC000484900616   -0.1100
     30 C30        -5.1408    2.7325   52.7555 C.ar    1  ZINC000484900616   -0.1000
     31 N31         1.1181    1.0675   47.4481 N.2     1  ZINC000484900616   -0.4300
     32 H32        -1.3697    2.6836   45.9734 H       1  ZINC000484900616    0.0700
     33 H33        -2.3299    2.6999   44.4748 H       1  ZINC000484900616    0.0700
     34 H34        -3.1466    2.6165   46.0542 H       1  ZINC000484900616    0.0800
     35 H35        -2.1526    0.3796   46.4501 H       1  ZINC000484900616    0.0700
     36 H36        -3.1129    0.3958   44.9515 H       1  ZINC000484900616    0.0700
     37 H37        -0.3772   -1.7254   46.5985 H       1  ZINC000484900616    0.1900
     38 H38         4.1522    1.2414   49.2742 H       1  ZINC000484900616    0.0900
     39 H39         3.2047    2.3462   48.2226 H       1  ZINC000484900616    0.0800
     40 H40         4.0122    2.7321   51.1602 H       1  ZINC000484900616    0.0700
     41 H41         4.1203    3.9106   49.8119 H       1  ZINC000484900616    0.0800
     42 H42         1.9936    3.8217   51.6027 H       1  ZINC000484900616    0.0600
     43 H43         1.8543    4.4397   49.9330 H       1  ZINC000484900616    0.0900
     44 H44         0.0825    1.0253   51.2796 H       1  ZINC000484900616    0.1100
     45 H45         0.9405    2.2196   52.2825 H       1  ZINC000484900616    0.0700
     46 H46        -2.1415    1.4491   50.9063 H       1  ZINC000484900616    0.4000
     47 H47        -4.4422    4.4079   49.7893 H       1  ZINC000484900616    0.0700
     48 H48        -2.6965    4.3880   49.4421 H       1  ZINC000484900616    0.0700
     49 H49        -3.6954    2.9638   49.0647 H       1  ZINC000484900616    0.0600
     50 H50        -4.2948    1.0251   49.9722 H       1  ZINC000484900616    0.1200
     51 H51        -6.2160   -0.3328   50.6988 H       1  ZINC000484900616    0.1200
     52 H52        -7.4625   -0.9911   53.0235 H       1  ZINC000484900616    0.0700
     53 H53        -8.1810    0.4408   53.7992 H       1  ZINC000484900616    0.0700
     54 H54        -9.1918    1.1061   51.6349 H       1  ZINC000484900616    0.0600
     55 H55        -8.4734   -0.3259   50.8592 H       1  ZINC000484900616    0.0600
     56 H56        -9.7212   -0.5247   52.1128 H       1  ZINC000484900616    0.0600
     57 H57        -6.7629    2.2382   54.0575 H       1  ZINC000484900616    0.1200
     58 H58        -4.8392    3.5940   53.3329 H       1  ZINC000484900616    0.1200
@<TRIPOS>BOND
     1     1     2    1
     2     1    32    1
     3     1    33    1
     4     1    34    1
     5     2     3    1
     6     2    35    1
     7     2    36    1
     8     3     4    1
     9     4     5    2
    10     4     6    1
    11     6    31    1
    12     6     7    2
    13     7     8    1
    14     7    37    1
    15     8     9    1
    16     9    10    1
    17     9    31    2
    18    10    11    1
    19    10    15    1
    20    10    12    1
    21    12    13    1
    22    12    38    1
    23    12    39    1
    24    13    14    1
    25    13    40    1
    26    13    41    1
    27    14    15    1
    28    14    42    1
    29    14    43    1
    30    15    16    1
    31    16    17    1
    32    16    44    1
    33    16    45    1
    34    17    18    2
    35    17    19   am
    36    19    20    1
    37    19    46    1
    38    20    21    1
    39    20    22    1
    40    20    23    1
    41    22    47    1
    42    22    48    1
    43    22    49    1
    44    23    30   ar
    45    23    24   ar
    46    24    25   ar
    47    24    50    1
    48    25    26   ar
    49    25    51    1
    50    26    27    1
    51    26    29   ar
    52    27    28    1
    53    27    52    1
    54    27    53    1
    55    28    54    1
    56    28    55    1
    57    28    56    1
    58    29    30   ar
    59    29    57    1
    60    30    58    1
@<TRIPOS>SUBSTRUCTURE
     1 ZINC000484900616        1 TEMP              0 ****  ****    0 ROOT


##########                                Name:    ZINC000541252362
##########                DOCK_Rotatable_Bonds:                   5
##########                         Heavy_Atoms:                  27
##########                    Molecular_Weight:             401.254
##########                DOCK_Rotatable_Bonds:                   5
##########                       Formal_Charge:          -0.0199999
##########                     HBond_Acceptors:                   9
##########                        HBond_Donors:                   1
##########                         Heavy_Atoms:                  27
##########                          Grid_Score:          -34.973019
##########                     Grid_vdw_energy:          -34.841949
##########                      Grid_es_energy:           -0.131067
##########           Internal_energy_repulsive:            6.468858

@<TRIPOS>MOLECULE
ZINC000541252362
 41 44 1 0 0
SMALL
USER_CHARGES


@<TRIPOS>ATOM
      1 C1         -8.2714    0.8086   58.5949 C.3     1  ZINC000541252362    0.1000
      2 N2         -8.5954    0.3738   57.2339 N.pl3   1  ZINC000541252362   -0.3800
      3 C3         -9.6993   -0.2876   56.8418 C.2     1  ZINC000541252362    0.2600
      4 N4         -9.6187   -0.4926   55.5538 N.2     1  ZINC000541252362   -0.5300
      5 C5         -8.4755    0.0236   55.0831 C.2     1  ZINC000541252362    0.2700
      6 C6         -8.0289   -0.0107   53.6682 C.ar    1  ZINC000541252362    0.0000
      7 C7         -8.8239   -0.6196   52.6992 C.ar    1  ZINC000541252362   -0.1000
      8 C8         -8.4073   -0.6505   51.3831 C.ar    1  ZINC000541252362   -0.1000
      9 C9         -7.2021   -0.0789   51.0221 C.ar    1  ZINC000541252362   -0.1300
     10 C10        -6.4029    0.5305   51.9819 C.ar    1  ZINC000541252362    0.1400
     11 N11        -5.1830    1.1083   51.6126 N.am    1  ZINC000541252362   -0.6800
     12 C12        -4.9139    2.3859   51.9466 C.2     1  ZINC000541252362    0.5100
     13 O13        -5.7292    3.0351   52.5671 O.2     1  ZINC000541252362   -0.4900
     14 C14        -3.6002    3.0081   51.5490 C.3     1  ZINC000541252362   -0.0600
     15 C15        -3.0333    2.2703   50.3636 C.2     1  ZINC000541252362    0.0700
     16 C16        -3.5319    2.2942   49.1079 C.2     1  ZINC000541252362   -0.0700
     17 N17        -2.7290    1.4968   48.3390 N.pl3   1  ZINC000541252362   -0.3500
     18 C18        -2.7584    1.1581   47.0161 C.2     1  ZINC000541252362    0.0700
     19 C19        -1.8251    0.3319   46.4969 C.2     1  ZINC000541252362   -0.0500
     20 Cl20       -1.8812   -0.0856   44.8128 Cl      1  ZINC000541252362   -0.0200
     21 C21        -0.8081   -0.1911   47.3139 C.2     1  ZINC000541252362   -0.0900
     22 C22        -0.7673    0.1390   48.6337 C.2     1  ZINC000541252362    0.0200
     23 Cl23        0.4817   -0.4968   49.6582 Cl      1  ZINC000541252362   -0.0100
     24 C24        -1.7499    1.0027   49.1605 C.2     1  ZINC000541252362    0.2200
     25 N25        -1.9512    1.4886   50.3775 N.2     1  ZINC000541252362   -0.4300
     26 C26        -6.8170    0.5705   53.3045 C.ar    1  ZINC000541252362   -0.0800
     27 N27        -7.8177    0.5709   56.0814 N.2     1  ZINC000541252362   -0.3100
     28 H28        -8.6702    1.8092   58.7613 H       1  ZINC000541252362    0.0800
     29 H29        -8.7137    0.1172   59.3122 H       1  ZINC000541252362    0.0900
     30 H30        -7.1891    0.8227   58.7238 H       1  ZINC000541252362    0.0900
     31 H31       -10.5126   -0.5963   57.4819 H       1  ZINC000541252362    0.2200
     32 H32        -9.7662   -1.0680   52.9778 H       1  ZINC000541252362    0.1300
     33 H33        -9.0250   -1.1229   50.6336 H       1  ZINC000541252362    0.1300
     34 H34        -6.8803   -0.1062   49.9916 H       1  ZINC000541252362    0.1300
     35 H35        -4.5310    0.5890   51.1163 H       1  ZINC000541252362    0.4100
     36 H36        -3.7587    4.0536   51.2844 H       1  ZINC000541252362    0.1200
     37 H37        -2.9016    2.9465   52.3834 H       1  ZINC000541252362    0.1200
     38 H38        -4.4019    2.8401   48.7740 H       1  ZINC000541252362    0.1900
     39 H39        -3.5356    1.5545   46.3795 H       1  ZINC000541252362    0.1800
     40 H40        -0.0628   -0.8520   46.8966 H       1  ZINC000541252362    0.1600
     41 H41        -6.1976    1.0439   54.0519 H       1  ZINC000541252362    0.1500
@<TRIPOS>BOND
     1     1     2    1
     2     1    28    1
     3     1    29    1
     4     1    30    1
     5     2    27    1
     6     2     3    1
     7     3     4    2
     8     3    31    1
     9     4     5    1
    10     5     6    1
    11     5    27    2
    12     6    26   ar
    13     6     7   ar
    14     7     8   ar
    15     7    32    1
    16     8     9   ar
    17     8    33    1
    18     9    10   ar
    19     9    34    1
    20    10    11    1
    21    10    26   ar
    22    11    12   am
    23    11    35    1
    24    12    13    2
    25    12    14    1
    26    14    15    1
    27    14    36    1
    28    14    37    1
    29    15    25    1
    30    15    16    2
    31    16    17    1
    32    16    38    1
    33    17    24    1
    34    17    18    1
    35    18    19    2
    36    18    39    1
    37    19    20    1
    38    19    21    1
    39    21    22    2
    40    21    40    1
    41    22    23    1
    42    22    24    1
    43    24    25    2
    44    26    41    1
@<TRIPOS>SUBSTRUCTURE
     1 ZINC000541252362        1 TEMP              0 ****  ****    0 ROOT


##########                                Name:    ZINC000027473870
##########                DOCK_Rotatable_Bonds:                  10
##########                         Heavy_Atoms:                  31
##########                    Molecular_Weight:             422.502
##########                DOCK_Rotatable_Bonds:                  10
##########                       Formal_Charge:        -7.45058e-08
##########                     HBond_Acceptors:                   7
##########                        HBond_Donors:                   1
##########                         Heavy_Atoms:                  31
##########                          Grid_Score:          -34.937798
##########                     Grid_vdw_energy:          -34.803967
##########                      Grid_es_energy:           -0.133831
##########           Internal_energy_repulsive:           16.980518

@<TRIPOS>MOLECULE
ZINC000027473870
 58 60 1 0 0
SMALL
USER_CHARGES


@<TRIPOS>ATOM
      1 C1         -9.2228    2.6462   54.7161 C.3     1  ZINC000027473870   -0.1400
      2 C2         -8.3132    1.4325   54.9171 C.3     1  ZINC000027473870   -0.0800
      3 C3         -8.2663    0.6240   53.6462 C.2     1  ZINC000027473870    0.1700
      4 C4         -7.3516    0.7639   52.6214 C.2     1  ZINC000027473870   -0.2900
      5 C5         -6.2401    1.7307   52.5666 C.2     1  ZINC000027473870    0.6000
      6 O6         -6.4039    2.8686   52.9631 O.2     1  ZINC000027473870   -0.5400
      7 N7         -5.0424    1.3535   52.0771 N.am    1  ZINC000027473870   -0.7200
      8 C8         -3.9373    2.3138   52.0243 C.3     1  ZINC000027473870    0.1600
      9 C9         -3.2722    2.2405   50.6740 C.ar    1  ZINC000027473870   -0.0900
     10 C10        -4.0214    1.9293   49.5532 C.ar    1  ZINC000027473870   -0.1100
     11 C11        -3.4187    1.8600   48.3142 C.ar    1  ZINC000027473870   -0.1100
     12 C12        -2.0500    2.1050   48.1928 C.ar    1  ZINC000027473870   -0.1200
     13 C13        -1.3974    2.0330   46.8680 C.2     1  ZINC000027473870    0.5600
     14 O14        -1.0863    3.0545   46.2874 O.2     1  ZINC000027473870   -0.5300
     15 N15        -1.1476    0.8346   46.3042 N.am    1  ZINC000027473870   -0.6100
     16 C16        -1.5226   -0.3966   47.0040 C.3     1  ZINC000027473870    0.1100
     17 C17        -0.3170   -0.9287   47.7814 C.3     1  ZINC000027473870   -0.1700
     18 C18        -0.5010    0.7632   44.9915 C.3     1  ZINC000027473870    0.0900
     19 C19        -1.5701    0.7294   43.8975 C.3     1  ZINC000027473870   -0.1800
     20 C20        -1.3000    2.4189   49.3273 C.ar    1  ZINC000027473870   -0.0700
     21 C21        -1.9161    2.4900   50.5597 C.ar    1  ZINC000027473870   -0.1000
     22 C22        -7.6801   -0.1933   51.6349 C.2     1  ZINC000027473870    0.0900
     23 N23        -8.7235   -0.8588   52.0486 N.2     1  ZINC000027473870   -0.2800
     24 N24        -9.1042   -0.3711   53.3037 N.pl3   1  ZINC000027473870   -0.3100
     25 C25       -10.1828   -0.8347   54.0705 C.ar    1  ZINC000027473870    0.1300
     26 C26        -9.9616   -1.7180   55.1185 C.ar    1  ZINC000027473870   -0.0900
     27 C27       -11.0251   -2.1732   55.8729 C.ar    1  ZINC000027473870   -0.1300
     28 C28       -12.3115   -1.7492   55.5845 C.ar    1  ZINC000027473870    0.1100
     29 F29       -13.3506   -2.1952   56.3237 F       1  ZINC000027473870   -0.1300
     30 C30       -12.5340   -0.8681   54.5393 C.ar    1  ZINC000027473870   -0.1400
     31 C31       -11.4725   -0.4067   53.7861 C.ar    1  ZINC000027473870   -0.0700
     32 H32        -9.3269    3.1825   55.6592 H       1  ZINC000027473870    0.0700
     33 H33        -8.7858    3.3079   53.9683 H       1  ZINC000027473870    0.0700
     34 H34       -10.2038    2.3129   54.3774 H       1  ZINC000027473870    0.0500
     35 H35        -7.3081    1.7696   55.1706 H       1  ZINC000027473870    0.1200
     36 H36        -8.7043    0.8154   55.7261 H       1  ZINC000027473870    0.0800
     37 H37        -4.9120    0.4462   51.7597 H       1  ZINC000027473870    0.4000
     38 H38        -4.3227    3.3205   52.1852 H       1  ZINC000027473870    0.0800
     39 H39        -3.2107    2.0746   52.8007 H       1  ZINC000027473870    0.0800
     40 H40        -5.0804    1.7399   49.6485 H       1  ZINC000027473870    0.1300
     41 H41        -4.0045    1.6163   47.4402 H       1  ZINC000027473870    0.1500
     42 H42        -2.3378   -0.1870   47.6965 H       1  ZINC000027473870    0.0800
     43 H43        -1.8453   -1.1431   46.2782 H       1  ZINC000027473870    0.0800
     44 H44        -0.5961   -1.8447   48.3021 H       1  ZINC000027473870    0.0700
     45 H45         0.4981   -1.1384   47.0888 H       1  ZINC000027473870    0.0600
     46 H46         0.0056   -0.1821   48.5071 H       1  ZINC000027473870    0.0600
     47 H47         0.1345    1.6376   44.8515 H       1  ZINC000027473870    0.0800
     48 H48         0.1062   -0.1403   44.9341 H       1  ZINC000027473870    0.0900
     49 H49        -1.1165    0.4212   42.9556 H       1  ZINC000027473870    0.0700
     50 H50        -2.3507    0.0207   44.1740 H       1  ZINC000027473870    0.0700
     51 H51        -2.0049    1.7225   43.7836 H       1  ZINC000027473870    0.0600
     52 H52        -0.2405    2.6091   49.2401 H       1  ZINC000027473870    0.1300
     53 H53        -1.3371    2.7330   51.4384 H       1  ZINC000027473870    0.1300
     54 H54        -7.1589   -0.3467   50.7015 H       1  ZINC000027473870    0.1900
     55 H55        -8.9586   -2.0493   55.3437 H       1  ZINC000027473870    0.1500
     56 H56       -10.8534   -2.8606   56.6881 H       1  ZINC000027473870    0.1500
     57 H57       -13.5380   -0.5389   54.3156 H       1  ZINC000027473870    0.1500
     58 H58       -11.6464    0.2806   52.9714 H       1  ZINC000027473870    0.1400
@<TRIPOS>BOND
     1     1     2    1
     2     1    32    1
     3     1    33    1
     4     1    34    1
     5     2     3    1
     6     2    35    1
     7     2    36    1
     8     3    24    1
     9     3     4    2
    10     4     5    1
    11     4    22    1
    12     5     6    2
    13     5     7   am
    14     7     8    1
    15     7    37    1
    16     8     9    1
    17     8    38    1
    18     8    39    1
    19     9    21   ar
    20     9    10   ar
    21    10    11   ar
    22    10    40    1
    23    11    12   ar
    24    11    41    1
    25    12    13    1
    26    12    20   ar
    27    13    14    2
    28    13    15   am
    29    15    16    1
    30    15    18    1
    31    16    17    1
    32    16    42    1
    33    16    43    1
    34    17    44    1
    35    17    45    1
    36    17    46    1
    37    18    19    1
    38    18    47    1
    39    18    48    1
    40    19    49    1
    41    19    50    1
    42    19    51    1
    43    20    21   ar
    44    20    52    1
    45    21    53    1
    46    22    23    2
    47    22    54    1
    48    23    24    1
    49    24    25    1
    50    25    31   ar
    51    25    26   ar
    52    26    27   ar
    53    26    55    1
    54    27    28   ar
    55    27    56    1
    56    28    29    1
    57    28    30   ar
    58    30    31   ar
    59    30    57    1
    60    31    58    1
@<TRIPOS>SUBSTRUCTURE
     1 ZINC000027473870        1 TEMP              0 ****  ****    0 ROOT


##########                                Name:    ZINC000050607728
##########                DOCK_Rotatable_Bonds:                  10
##########                         Heavy_Atoms:                  31
##########                    Molecular_Weight:             416.476
##########                DOCK_Rotatable_Bonds:                  10
##########                       Formal_Charge:          -0.0199995
##########                     HBond_Acceptors:                   6
##########                        HBond_Donors:                   1
##########                         Heavy_Atoms:                  31
##########                          Grid_Score:          -34.928150
##########                     Grid_vdw_energy:          -33.885174
##########                      Grid_es_energy:           -1.042976
##########           Internal_energy_repulsive:           14.428619

@<TRIPOS>MOLECULE
ZINC000050607728
 55 57 1 0 0
SMALL
USER_CHARGES


@<TRIPOS>ATOM
      1 C1         -1.8495    0.1129   45.0353 C.3     1  ZINC000050607728    0.0800
      2 N2         -1.8057    0.8169   46.3194 N.am    1  ZINC000050607728   -0.6200
      3 C3         -1.6250    2.2703   46.3520 C.3     1  ZINC000050607728    0.0700
      4 C4         -1.9315    0.1274   47.4705 C.2     1  ZINC000050607728    0.5600
      5 O5         -2.0815   -1.0785   47.4434 O.2     1  ZINC000050607728   -0.5300
      6 C6         -1.8873    0.8378   48.7663 C.ar    1  ZINC000050607728   -0.1400
      7 C7         -0.6750    0.9915   49.4403 C.ar    1  ZINC000050607728   -0.0800
      8 C8         -0.6405    1.6560   50.6490 C.ar    1  ZINC000050607728   -0.1300
      9 C9         -1.8043    2.1689   51.1933 C.ar    1  ZINC000050607728   -0.0700
     10 C10        -3.0098    2.0195   50.5304 C.ar    1  ZINC000050607728   -0.1100
     11 C11        -4.2728    2.5810   51.1310 C.3     1  ZINC000050607728    0.1100
     12 O12        -4.8893    1.5809   51.9841 O.3     1  ZINC000050607728   -0.3400
     13 C13        -6.0279    1.9275   52.6047 C.2     1  ZINC000050607728    0.4700
     14 O14        -6.3956    3.0784   52.5940 O.2     1  ZINC000050607728   -0.5000
     15 C15        -6.8475    0.8811   53.3150 C.3     1  ZINC000050607728    0.2000
     16 H16        -6.3326   -0.0783   53.2668 H       1  ZINC000050607728    0.1400
     17 N17        -7.0267    1.2693   54.7163 N.am    1  ZINC000050607728   -0.7100
     18 C18        -7.7610    0.4966   55.5410 C.2     1  ZINC000050607728    0.5700
     19 O19        -8.2732   -0.5232   55.1226 O.2     1  ZINC000050607728   -0.5200
     20 C20        -7.9432    0.8893   56.9546 C.ar    1  ZINC000050607728   -0.1400
     21 C21        -7.3601    2.0621   57.4371 C.ar    1  ZINC000050607728   -0.0800
     22 C22        -7.5344    2.4230   58.7571 C.ar    1  ZINC000050607728   -0.1300
     23 C23        -8.2850    1.6252   59.6023 C.ar    1  ZINC000050607728   -0.0900
     24 C24        -8.8653    0.4611   59.1305 C.ar    1  ZINC000050607728   -0.1300
     25 C25        -8.7039    0.0919   57.8111 C.ar    1  ZINC000050607728   -0.0600
     26 C26        -8.1949    0.7620   52.6505 C.ar    1  ZINC000050607728   -0.1000
     27 C27        -9.1003    1.8032   52.7323 C.ar    1  ZINC000050607728   -0.1000
     28 C28       -10.3362    1.6939   52.1228 C.ar    1  ZINC000050607728   -0.1200
     29 C29       -10.6665    0.5435   51.4312 C.ar    1  ZINC000050607728   -0.1100
     30 C30        -9.7607   -0.4975   51.3488 C.ar    1  ZINC000050607728   -0.1200
     31 C31        -8.5231   -0.3865   51.9546 C.ar    1  ZINC000050607728   -0.0800
     32 C32        -3.0570    1.3628   49.3184 C.ar    1  ZINC000050607728   -0.0400
     33 H33        -0.8412   -0.1892   44.7520 H       1  ZINC000050607728    0.0600
     34 H34        -2.4813   -0.7707   45.1267 H       1  ZINC000050607728    0.0800
     35 H35        -2.2585    0.7746   44.2719 H       1  ZINC000050607728    0.0700
     36 H36        -2.5926    2.7593   46.2394 H       1  ZINC000050607728    0.0600
     37 H37        -1.1801    2.5599   47.3041 H       1  ZINC000050607728    0.0800
     38 H38        -0.9678    2.5732   45.5368 H       1  ZINC000050607728    0.0700
     39 H39         0.2343    0.5910   49.0167 H       1  ZINC000050607728    0.1400
     40 H40         0.2971    1.7757   51.1716 H       1  ZINC000050607728    0.1400
     41 H41        -1.7720    2.6878   52.1399 H       1  ZINC000050607728    0.1300
     42 H42        -4.0323    3.4646   51.7222 H       1  ZINC000050607728    0.0900
     43 H43        -4.9638    2.8544   50.3336 H       1  ZINC000050607728    0.0900
     44 H44        -6.6169    2.0825   55.0504 H       1  ZINC000050607728    0.4100
     45 H45        -6.7734    2.6854   56.7785 H       1  ZINC000050607728    0.1300
     46 H46        -7.0838    3.3302   59.1317 H       1  ZINC000050607728    0.1300
     47 H47        -8.4182    1.9120   60.6350 H       1  ZINC000050607728    0.1300
     48 H48        -9.4498   -0.1575   59.7955 H       1  ZINC000050607728    0.1300
     49 H49        -9.1578   -0.8168   57.4440 H       1  ZINC000050607728    0.1400
     50 H50        -8.8423    2.7021   53.2725 H       1  ZINC000050607728    0.1200
     51 H51       -11.0439    2.5073   52.1871 H       1  ZINC000050607728    0.1200
     52 H52       -11.6324    0.4578   50.9557 H       1  ZINC000050607728    0.1200
     53 H53       -10.0189   -1.3965   50.8087 H       1  ZINC000050607728    0.1300
     54 H54        -7.8155   -1.1997   51.8903 H       1  ZINC000050607728    0.1300
     55 H55        -3.9985    1.2472   48.8018 H       1  ZINC000050607728    0.1300
@<TRIPOS>BOND
     1     1     2    1
     2     1    33    1
     3     1    34    1
     4     1    35    1
     5     2     3    1
     6     2     4   am
     7     3    36    1
     8     3    37    1
     9     3    38    1
    10     4     5    2
    11     4     6    1
    12     6    32   ar
    13     6     7   ar
    14     7     8   ar
    15     7    39    1
    16     8     9   ar
    17     8    40    1
    18     9    10   ar
    19     9    41    1
    20    10    11    1
    21    10    32   ar
    22    11    12    1
    23    11    42    1
    24    11    43    1
    25    12    13    1
    26    13    14    2
    27    13    15    1
    28    15    16    1
    29    15    17    1
    30    15    26    1
    31    17    18   am
    32    17    44    1
    33    18    19    2
    34    18    20    1
    35    20    25   ar
    36    20    21   ar
    37    21    22   ar
    38    21    45    1
    39    22    23   ar
    40    22    46    1
    41    23    24   ar
    42    23    47    1
    43    24    25   ar
    44    24    48    1
    45    25    49    1
    46    26    31   ar
    47    26    27   ar
    48    27    28   ar
    49    27    50    1
    50    28    29   ar
    51    28    51    1
    52    29    30   ar
    53    29    52    1
    54    30    31   ar
    55    30    53    1
    56    31    54    1
    57    32    55    1
@<TRIPOS>SUBSTRUCTURE
     1 ZINC000050607728        1 TEMP              0 ****  ****    0 ROOT


##########                                Name:    ZINC000762020937
##########                DOCK_Rotatable_Bonds:                  10
##########                         Heavy_Atoms:                  28
##########                    Molecular_Weight:             391.467
##########                DOCK_Rotatable_Bonds:                  10
##########                       Formal_Charge:         -1.8999e-07
##########                     HBond_Acceptors:                   8
##########                        HBond_Donors:                   1
##########                         Heavy_Atoms:                  28
##########                          Grid_Score:          -34.746494
##########                     Grid_vdw_energy:          -33.202164
##########                      Grid_es_energy:           -1.544332
##########           Internal_energy_repulsive:           44.227371

@<TRIPOS>MOLECULE
ZINC000762020937
 57 58 1 0 0
SMALL
USER_CHARGES


@<TRIPOS>ATOM
      1 C1         -1.4513   -0.0018   43.9590 C.3     1  ZINC000762020937    0.0200
      2 O2         -2.1329   -0.5280   45.0995 O.3     1  ZINC000762020937   -0.3000
      3 C3         -2.0717    0.2007   46.2460 C.ar    1  ZINC000762020937    0.1100
      4 C4         -2.5378    1.5050   46.2653 C.ar    1  ZINC000762020937   -0.1700
      5 C5         -2.4751    2.2445   47.4321 C.ar    1  ZINC000762020937   -0.1000
      6 C6         -1.9477    1.6854   48.5807 C.ar    1  ZINC000762020937   -0.1000
      7 C7         -1.8814    2.4959   49.8495 C.3     1  ZINC000762020937    0.0200
      8 C8         -3.1723    2.3425   50.6116 C.2     1  ZINC000762020937    0.1900
      9 N9         -3.5680    3.0660   51.6312 N.2     1  ZINC000762020937   -0.4700
     10 C10        -4.7687    2.5717   51.9815 C.2     1  ZINC000762020937    0.1600
     11 C11        -5.6426    3.0649   53.1059 C.3     1  ZINC000762020937    0.2600
     12 H12        -6.2600    3.8902   52.7510 H       1  ZINC000762020937    0.1200
     13 N13        -6.5044    1.9744   53.5689 N.am    1  ZINC000762020937   -0.7100
     14 C14        -7.8158    2.1975   53.7859 C.2     1  ZINC000762020937    0.6600
     15 O15        -8.2836    3.3028   53.5962 O.2     1  ZINC000762020937   -0.5600
     16 O16        -8.6074    1.1957   54.2129 O.3     1  ZINC000762020937   -0.3600
     17 C17       -10.0033    1.5153   54.4535 C.3     1  ZINC000762020937    0.1400
     18 C18       -10.7393    0.2608   54.9282 C.3     1  ZINC000762020937   -0.1800
     19 C19       -10.1002    2.6007   55.5274 C.3     1  ZINC000762020937   -0.1400
     20 C20       -10.6412    2.0213   53.1581 C.3     1  ZINC000762020937   -0.1800
     21 C21        -4.7635    3.5461   54.2618 C.3     1  ZINC000762020937   -0.1000
     22 C22        -4.5338    5.0533   54.1348 C.3     1  ZINC000762020937   -0.1400
     23 C23        -5.4595    3.2464   55.5910 C.3     1  ZINC000762020937   -0.1400
     24 N24        -5.0372    1.5912   51.1723 N.2     1  ZINC000762020937   -0.3700
     25 O25        -4.1353    1.4468   50.3740 O.3     1  ZINC000762020937    0.0900
     26 C26        -1.4810    0.3837   48.5684 C.ar    1  ZINC000762020937   -0.1500
     27 C27        -1.5456   -0.3644   47.4043 C.ar    1  ZINC000762020937    0.1000
     28 O28        -1.0871   -1.6445   47.3905 O.3     1  ZINC000762020937   -0.3100
     29 C29         0.2796   -1.8481   47.7550 C.3     1  ZINC000762020937    0.0200
     30 H30        -1.8643    0.9751   43.7077 H       1  ZINC000762020937    0.0600
     31 H31        -0.3898    0.0998   44.1851 H       1  ZINC000762020937    0.0600
     32 H32        -1.5797   -0.6789   43.1145 H       1  ZINC000762020937    0.1000
     33 H33        -2.9499    1.9445   45.3689 H       1  ZINC000762020937    0.1400
     34 H34        -2.8389    3.2613   47.4458 H       1  ZINC000762020937    0.1300
     35 H35        -1.0528    2.1427   50.4633 H       1  ZINC000762020937    0.1200
     36 H36        -1.7283    3.5464   49.6019 H       1  ZINC000762020937    0.1200
     37 H37        -6.1313    1.0917   53.7191 H       1  ZINC000762020937    0.4100
     38 H38       -10.2848   -0.0997   55.8511 H       1  ZINC000762020937    0.0600
     39 H39       -11.7871    0.5008   55.1088 H       1  ZINC000762020937    0.0700
     40 H40       -10.6702   -0.5124   54.1631 H       1  ZINC000762020937    0.0900
     41 H41        -9.5759    3.4945   55.1892 H       1  ZINC000762020937    0.0700
     42 H42       -11.1481    2.8406   55.7081 H       1  ZINC000762020937    0.0800
     43 H43        -9.6458    2.2402   56.4503 H       1  ZINC000762020937    0.0700
     44 H44       -10.5721    1.2481   52.3929 H       1  ZINC000762020937    0.0900
     45 H45       -11.6890    2.2612   53.3386 H       1  ZINC000762020937    0.0700
     46 H46       -10.1169    2.9151   52.8198 H       1  ZINC000762020937    0.0600
     47 H47        -3.8047    3.0284   54.2291 H       1  ZINC000762020937    0.0800
     48 H48        -5.4925    5.5710   54.1676 H       1  ZINC000762020937    0.0600
     49 H49        -3.9074    5.3962   54.9584 H       1  ZINC000762020937    0.0600
     50 H50        -4.0379    5.2668   53.1879 H       1  ZINC000762020937    0.0500
     51 H51        -5.6232    2.1726   55.6815 H       1  ZINC000762020937    0.0500
     52 H52        -4.8332    3.5892   56.4146 H       1  ZINC000762020937    0.0600
     53 H53        -6.4182    3.7641   55.6238 H       1  ZINC000762020937    0.0700
     54 H54        -1.0693   -0.0508   49.4673 H       1  ZINC000762020937    0.1400
     55 H55         0.4417   -1.4898   48.7716 H       1  ZINC000762020937    0.0600
     56 H56         0.5152   -2.9110   47.7024 H       1  ZINC000762020937    0.1000
     57 H57         0.9243   -1.2987   47.0690 H       1  ZINC000762020937    0.0600
@<TRIPOS>BOND
     1     1     2    1
     2     1    30    1
     3     1    31    1
     4     1    32    1
     5     2     3    1
     6     3    27   ar
     7     3     4   ar
     8     4     5   ar
     9     4    33    1
    10     5     6   ar
    11     5    34    1
    12     6     7    1
    13     6    26   ar
    14     7     8    1
    15     7    35    1
    16     7    36    1
    17     8    25    1
    18     8     9    2
    19     9    10    1
    20    10    11    1
    21    10    24    2
    22    11    12    1
    23    11    13    1
    24    11    21    1
    25    13    14   am
    26    13    37    1
    27    14    15    2
    28    14    16    1
    29    16    17    1
    30    17    18    1
    31    17    19    1
    32    17    20    1
    33    18    38    1
    34    18    39    1
    35    18    40    1
    36    19    41    1
    37    19    42    1
    38    19    43    1
    39    20    44    1
    40    20    45    1
    41    20    46    1
    42    21    22    1
    43    21    23    1
    44    21    47    1
    45    22    48    1
    46    22    49    1
    47    22    50    1
    48    23    51    1
    49    23    52    1
    50    23    53    1
    51    24    25    1
    52    26    27   ar
    53    26    54    1
    54    27    28    1
    55    28    29    1
    56    29    55    1
    57    29    56    1
    58    29    57    1
@<TRIPOS>SUBSTRUCTURE
     1 ZINC000762020937        1 TEMP              0 ****  ****    0 ROOT


##########                                Name:    ZINC000532153088
##########                DOCK_Rotatable_Bonds:                  11
##########                         Heavy_Atoms:                  29
##########                    Molecular_Weight:             402.484
##########                DOCK_Rotatable_Bonds:                  11
##########                       Formal_Charge:          -0.0200009
##########                     HBond_Acceptors:                   6
##########                        HBond_Donors:                   1
##########                         Heavy_Atoms:                  29
##########                          Grid_Score:          -34.727856
##########                     Grid_vdw_energy:          -34.535332
##########                      Grid_es_energy:           -0.192524
##########           Internal_energy_repulsive:           19.353809

@<TRIPOS>MOLECULE
ZINC000532153088
 57 59 1 0 0
SMALL
USER_CHARGES


@<TRIPOS>ATOM
      1 C1         -6.6140    2.4393   56.9312 C.3     1  ZINC000532153088   -0.1800
      2 C2         -7.5969    1.4665   56.2765 C.3     1  ZINC000532153088    0.0800
      3 C3         -8.4517    0.8010   57.3569 C.3     1  ZINC000532153088   -0.1500
      4 O4         -8.4426    2.1801   55.3724 O.3     1  ZINC000532153088   -0.3800
      5 C5         -7.8172    2.5122   54.1311 C.3     1  ZINC000532153088    0.1000
      6 C6         -7.5573    1.2519   53.3467 C.ar    1  ZINC000532153088   -0.0700
      7 C7         -8.4786    0.2218   53.3687 C.ar    1  ZINC000532153088   -0.1000
      8 C8         -8.2401   -0.9344   52.6491 C.ar    1  ZINC000532153088   -0.1100
      9 C9         -7.0807   -1.0599   51.9072 C.ar    1  ZINC000532153088   -0.1200
     10 C10        -6.1596   -0.0290   51.8844 C.ar    1  ZINC000532153088   -0.1000
     11 C11        -6.4000    1.1285   52.6004 C.ar    1  ZINC000532153088   -0.1100
     12 C12        -5.3960    2.2521   52.5756 C.3     1  ZINC000532153088    0.1600
     13 N13        -4.5354    2.1121   51.3983 N.am    1  ZINC000532153088   -0.7300
     14 C14        -4.0879    3.2094   50.7563 C.2     1  ZINC000532153088    0.5100
     15 O15        -4.3990    4.3126   51.1522 O.2     1  ZINC000532153088   -0.5000
     16 C16        -3.2011    3.0653   49.5464 C.3     1  ZINC000532153088    0.0300
     17 N17        -1.8569    2.6520   49.9710 N.3     1  ZINC000532153088   -0.4800
     18 C18        -0.9599    2.5117   48.8161 C.3     1  ZINC000532153088    0.1000
     19 C19        -0.8574    1.0578   48.4333 C.ar    1  ZINC000532153088   -0.1300
     20 C20         0.0185    0.2268   49.1055 C.ar    1  ZINC000532153088   -0.0600
     21 C21         0.1132   -1.1072   48.7558 C.ar    1  ZINC000532153088   -0.1700
     22 C22        -0.6695   -1.6121   47.7314 C.ar    1  ZINC000532153088    0.1300
     23 F23        -0.5770   -2.9161   47.3902 F       1  ZINC000532153088   -0.1300
     24 C24        -1.5473   -0.7805   47.0574 C.ar    1  ZINC000532153088   -0.2000
     25 C25        -1.6452    0.5537   47.4119 C.ar    1  ZINC000532153088    0.1600
     26 F26        -2.5014    1.3664   46.7550 F       1  ZINC000532153088   -0.1100
     27 C27        -1.3040    3.5910   50.9561 C.3     1  ZINC000532153088    0.0200
     28 C28        -1.4506    3.2303   52.4357 C.3     1  ZINC000532153088   -0.2200
     29 C29        -0.0825    3.1363   51.7574 C.3     1  ZINC000532153088   -0.1700
     30 H30        -5.9690    1.8950   57.6208 H       1  ZINC000532153088    0.0700
     31 H31        -6.0051    2.9134   56.1615 H       1  ZINC000532153088    0.0600
     32 H32        -7.1680    3.2026   57.4776 H       1  ZINC000532153088    0.0700
     33 H33        -7.0429    0.7031   55.7301 H       1  ZINC000532153088    0.0600
     34 H34        -9.0057    1.5643   57.9033 H       1  ZINC000532153088    0.0600
     35 H35        -9.1519    0.1079   56.8905 H       1  ZINC000532153088    0.0600
     36 H36        -7.8067    0.2567   58.0466 H       1  ZINC000532153088    0.0700
     37 H37        -8.4725    3.1682   53.5581 H       1  ZINC000532153088    0.0600
     38 H38        -6.8728    3.0209   54.3246 H       1  ZINC000532153088    0.0600
     39 H39        -9.3845    0.3199   53.9484 H       1  ZINC000532153088    0.1300
     40 H40        -8.9596   -1.7396   52.6669 H       1  ZINC000532153088    0.1200
     41 H41        -6.8941   -1.9633   51.3456 H       1  ZINC000532153088    0.1300
     42 H42        -5.2535   -0.1272   51.3050 H       1  ZINC000532153088    0.1300
     43 H43        -5.9203    3.2068   52.5308 H       1  ZINC000532153088    0.0800
     44 H44        -4.7861    2.2144   53.4780 H       1  ZINC000532153088    0.0800
     45 H45        -4.2875    1.2295   51.0810 H       1  ZINC000532153088    0.4000
     46 H46        -3.6183    2.3125   48.8776 H       1  ZINC000532153088    0.0700
     47 H47        -3.1398    4.0205   49.0250 H       1  ZINC000532153088    0.1100
     48 H48        -1.3573    3.0815   47.9761 H       1  ZINC000532153088    0.0900
     49 H49         0.0289    2.8896   49.0761 H       1  ZINC000532153088    0.0500
     50 H50         0.6297    0.6198   49.9044 H       1  ZINC000532153088    0.1400
     51 H51         0.7984   -1.7558   49.2815 H       1  ZINC000532153088    0.1400
     52 H52        -2.1583   -1.1735   46.2582 H       1  ZINC000532153088    0.1500
     53 H53        -1.3649    4.6453   50.6863 H       1  ZINC000532153088    0.1200
     54 H54        -1.6083    4.0474   53.1397 H       1  ZINC000532153088    0.1000
     55 H55        -1.9574    2.2962   52.6782 H       1  ZINC000532153088    0.1000
     56 H56         0.3109    2.1404   51.5536 H       1  ZINC000532153088    0.1000
     57 H57         0.6600    3.8916   52.0151 H       1  ZINC000532153088    0.1000
@<TRIPOS>BOND
     1     1     2    1
     2     1    30    1
     3     1    31    1
     4     1    32    1
     5     2     3    1
     6     2     4    1
     7     2    33    1
     8     3    34    1
     9     3    35    1
    10     3    36    1
    11     4     5    1
    12     5     6    1
    13     5    37    1
    14     5    38    1
    15     6    11   ar
    16     6     7   ar
    17     7     8   ar
    18     7    39    1
    19     8     9   ar
    20     8    40    1
    21     9    10   ar
    22     9    41    1
    23    10    11   ar
    24    10    42    1
    25    11    12    1
    26    12    13    1
    27    12    43    1
    28    12    44    1
    29    13    14   am
    30    13    45    1
    31    14    15    2
    32    14    16    1
    33    16    17    1
    34    16    46    1
    35    16    47    1
    36    17    18    1
    37    17    27    1
    38    18    19    1
    39    18    48    1
    40    18    49    1
    41    19    25   ar
    42    19    20   ar
    43    20    21   ar
    44    20    50    1
    45    21    22   ar
    46    21    51    1
    47    22    23    1
    48    22    24   ar
    49    24    25   ar
    50    24    52    1
    51    25    26    1
    52    27    29    1
    53    27    28    1
    54    27    53    1
    55    28    29    1
    56    28    54    1
    57    28    55    1
    58    29    56    1
    59    29    57    1
@<TRIPOS>SUBSTRUCTURE
     1 ZINC000532153088        1 TEMP              0 ****  ****    0 ROOT


##########                                Name:    ZINC001369071670
##########                DOCK_Rotatable_Bonds:                   8
##########                         Heavy_Atoms:                  24
##########                    Molecular_Weight:             335.366
##########                DOCK_Rotatable_Bonds:                   8
##########                       Formal_Charge:        -2.90573e-07
##########                     HBond_Acceptors:                  10
##########                        HBond_Donors:                   1
##########                         Heavy_Atoms:                  24
##########                          Grid_Score:          -34.683502
##########                     Grid_vdw_energy:          -34.523689
##########                      Grid_es_energy:           -0.159814
##########           Internal_energy_repulsive:            9.899058

@<TRIPOS>MOLECULE
ZINC001369071670
 45 47 1 0 0
SMALL
USER_CHARGES


@<TRIPOS>ATOM
      1 C1         -9.8856   -1.2128   52.7523 C.3     1  ZINC001369071670   -0.0800
      2 C2         -8.5161   -0.8343   52.2500 C.2     1  ZINC001369071670    0.0000
      3 C3         -7.7874    0.2429   52.6225 C.2     1  ZINC001369071670   -0.2300
      4 C4         -6.5949    0.1294   51.8614 C.2     1  ZINC001369071670    0.2100
      5 O5         -5.5347    0.9763   51.8776 O.3     1  ZINC001369071670   -0.2600
      6 C6         -5.6760    2.1782   52.6375 C.3     1  ZINC001369071670    0.0400
      7 C7         -4.3996    2.9754   52.5587 C.2     1  ZINC001369071670    0.5200
      8 O8         -4.1472    3.8017   53.4099 O.2     1  ZINC001369071670   -0.5100
      9 N9         -3.5384    2.7701   51.5425 N.am    1  ZINC001369071670   -0.7200
     10 C10        -2.2968    3.5439   51.4668 C.3     1  ZINC001369071670    0.1500
     11 H11        -2.5024    4.5858   51.7123 H       1  ZINC001369071670    0.0900
     12 C12        -1.2810    2.9767   52.4605 C.3     1  ZINC001369071670   -0.1700
     13 C13        -1.7270    3.4569   50.0495 C.3     1  ZINC001369071670   -0.1200
     14 C14        -1.5453    2.0149   49.5422 C.3     1  ZINC001369071670    0.0100
     15 N15        -2.0819    2.5058   48.2537 N.3     1  ZINC001369071670   -0.4800
     16 C16        -3.0353    1.5463   47.6806 C.3     1  ZINC001369071670    0.1000
     17 C17        -2.2805    0.4395   46.9904 C.2     1  ZINC001369071670    0.1900
     18 N18        -1.9858   -0.7361   47.4892 N.2     1  ZINC001369071670   -0.3000
     19 N19        -1.3367   -1.3970   46.5937 N.2     1  ZINC001369071670   -0.0700
     20 N20        -1.2096   -0.6734   45.5367 N.2     1  ZINC001369071670   -0.0900
     21 N21        -1.7831    0.4643   45.7399 N.pl3   1  ZINC001369071670   -0.3000
     22 C22        -1.8686    1.5776   44.7915 C.3     1  ZINC001369071670    0.0800
     23 C23        -2.7885    3.6069   48.9448 C.3     1  ZINC001369071670    0.0200
     24 N24        -6.7220   -0.9536   51.1424 N.2     1  ZINC001369071670   -0.4100
     25 O25        -7.7793   -1.5023   51.3508 O.3     1  ZINC001369071670    0.1000
     26 H26       -10.2078   -2.1350   52.2688 H       1  ZINC001369071670    0.0900
     27 H27        -9.8484   -1.3622   53.8314 H       1  ZINC001369071670    0.1000
     28 H28       -10.5911   -0.4150   52.5200 H       1  ZINC001369071670    0.1000
     29 H29        -8.0519    1.0110   53.3342 H       1  ZINC001369071670    0.1800
     30 H30        -6.4986    2.7687   52.2339 H       1  ZINC001369071670    0.1000
     31 H31        -5.8844    1.9280   53.6778 H       1  ZINC001369071670    0.1000
     32 H32        -3.7408    2.1101   50.8611 H       1  ZINC001369071670    0.4000
     33 H33        -1.6869    3.0388   53.4702 H       1  ZINC001369071670    0.0600
     34 H34        -1.0754    1.9348   52.2150 H       1  ZINC001369071670    0.0600
     35 H35        -0.3571    3.5524   52.4042 H       1  ZINC001369071670    0.0700
     36 H36        -0.8505    4.0884   49.9045 H       1  ZINC001369071670    0.1100
     37 H37        -0.5045    1.6951   49.4913 H       1  ZINC001369071670    0.1000
     38 H38        -2.1904    1.2901   50.0390 H       1  ZINC001369071670    0.0800
     39 H39        -3.6498    1.1255   48.4764 H       1  ZINC001369071670    0.1000
     40 H40        -3.6739    2.0556   46.9590 H       1  ZINC001369071670    0.0900
     41 H41        -2.7718    1.4741   44.1901 H       1  ZINC001369071670    0.1000
     42 H42        -1.9025    2.5195   45.3388 H       1  ZINC001369071670    0.1000
     43 H43        -0.9950    1.5673   44.1396 H       1  ZINC001369071670    0.1100
     44 H44        -3.7970    3.3477   49.2668 H       1  ZINC001369071670    0.0800
     45 H45        -2.7409    4.5591   48.4165 H       1  ZINC001369071670    0.1000
@<TRIPOS>BOND
     1     1     2    1
     2     1    26    1
     3     1    27    1
     4     1    28    1
     5     2    25    1
     6     2     3    2
     7     3     4    1
     8     3    29    1
     9     4     5    1
    10     4    24    2
    11     5     6    1
    12     6     7    1
    13     6    30    1
    14     6    31    1
    15     7     8    2
    16     7     9   am
    17     9    10    1
    18     9    32    1
    19    10    11    1
    20    10    12    1
    21    10    13    1
    22    12    33    1
    23    12    34    1
    24    12    35    1
    25    13    23    1
    26    13    14    1
    27    13    36    1
    28    14    15    1
    29    14    37    1
    30    14    38    1
    31    15    16    1
    32    15    23    1
    33    16    17    1
    34    16    39    1
    35    16    40    1
    36    17    21    1
    37    17    18    2
    38    18    19    1
    39    19    20    2
    40    20    21    1
    41    21    22    1
    42    22    41    1
    43    22    42    1
    44    22    43    1
    45    23    44    1
    46    23    45    1
    47    24    25    1
@<TRIPOS>SUBSTRUCTURE
     1 ZINC001369071670        1 TEMP              0 ****  ****    0 ROOT


##########                                Name:    ZINC001070580102
##########                DOCK_Rotatable_Bonds:                   8
##########                         Heavy_Atoms:                  25
##########                    Molecular_Weight:              349.39
##########                DOCK_Rotatable_Bonds:                   8
##########                       Formal_Charge:          -0.0100003
##########                     HBond_Acceptors:                   9
##########                        HBond_Donors:                   3
##########                         Heavy_Atoms:                  25
##########                          Grid_Score:          -34.627190
##########                     Grid_vdw_energy:          -33.364262
##########                      Grid_es_energy:           -1.262928
##########           Internal_energy_repulsive:           13.465919

@<TRIPOS>MOLECULE
ZINC001070580102
 48 50 1 0 0
SMALL
USER_CHARGES


@<TRIPOS>ATOM
      1 C1         -8.6072   -1.2123   51.8291 C.3     1  ZINC001070580102   -0.0800
      2 C2         -7.7481   -0.0944   52.3614 C.2     1  ZINC001070580102   -0.0100
      3 C3         -6.7680    0.5233   51.6846 C.2     1  ZINC001070580102   -0.1900
      4 C4         -6.2191    1.5338   52.6007 C.2     1  ZINC001070580102   -0.2500
      5 C5         -5.1203    2.4782   52.3305 C.2     1  ZINC001070580102    0.6000
      6 O6         -4.7106    3.2038   53.2162 O.2     1  ZINC001070580102   -0.5300
      7 N7         -4.5696    2.5375   51.1018 N.am    1  ZINC001070580102   -0.7200
      8 C8         -3.4787    3.4775   50.8328 C.3     1  ZINC001070580102    0.2000
      9 C9         -2.7291    3.0381   49.6015 C.2     1  ZINC001070580102    0.2600
     10 N10        -2.1249    1.8890   49.4391 N.2     1  ZINC001070580102   -0.5100
     11 C11        -1.5659    1.8392   48.2306 C.2     1  ZINC001070580102    0.2300
     12 C12        -0.7826    0.6777   47.6754 C.3     1  ZINC001070580102    0.1400
     13 H13        -0.1132    1.0316   46.8914 H       1  ZINC001070580102    0.0800
     14 C14        -1.7479   -0.3587   47.0940 C.3     1  ZINC001070580102    0.0800
     15 O15        -1.0044   -1.4916   46.6368 O.3     1  ZINC001070580102   -0.3800
     16 C16        -0.2267   -2.1207   47.6589 C.3     1  ZINC001070580102    0.0600
     17 C17         0.7541   -1.1022   48.2460 C.3     1  ZINC001070580102    0.0200
     18 N18         0.0053    0.0580   48.7508 N.3     1  ZINC001070580102   -0.5200
     19 C19         0.9071    1.0356   49.3748 C.3     1  ZINC001070580102    0.0600
     20 C20         1.2546    0.5765   50.7923 C.3     1  ZINC001070580102    0.0800
     21 O21         2.6271    0.1816   50.8420 O.3     1  ZINC001070580102   -0.5700
     22 N22        -1.8078    2.9608   47.6045 N.2     1  ZINC001070580102   -0.2700
     23 N23        -2.5696    3.7560   48.4762 N.pl3   1  ZINC001070580102   -0.4700
     24 C24        -6.9399    1.4151   53.7528 C.2     1  ZINC001070580102    0.0900
     25 C25        -6.7516    2.2407   54.9994 C.3     1  ZINC001070580102   -0.0900
     26 O26        -7.8450    0.4460   53.5861 O.3     1  ZINC001070580102   -0.1700
     27 H27        -9.3221   -1.5167   52.5935 H       1  ZINC001070580102    0.0800
     28 H28        -9.1447   -0.8683   50.9454 H       1  ZINC001070580102    0.0900
     29 H29        -7.9763   -2.0604   51.5633 H       1  ZINC001070580102    0.0900
     30 H30        -6.4475    0.3198   50.6735 H       1  ZINC001070580102    0.1500
     31 H31        -4.8957    1.9580   50.3957 H       1  ZINC001070580102    0.4000
     32 H32        -3.8893    4.4743   50.6718 H       1  ZINC001070580102    0.1000
     33 H33        -2.7984    3.4980   51.6843 H       1  ZINC001070580102    0.1100
     34 H34        -2.4522   -0.6726   47.8645 H       1  ZINC001070580102    0.0700
     35 H35        -2.2932    0.0802   46.2584 H       1  ZINC001070580102    0.1000
     36 H36        -0.8868   -2.4856   48.4457 H       1  ZINC001070580102    0.0600
     37 H37         0.3283   -2.9560   47.2319 H       1  ZINC001070580102    0.1000
     38 H38         1.3092   -1.5611   49.0641 H       1  ZINC001070580102    0.1200
     39 H39         1.4485   -0.7772   47.4712 H       1  ZINC001070580102    0.0400
     40 H40         1.8200    1.1159   48.7849 H       1  ZINC001070580102    0.0500
     41 H41         0.4155    2.0075   49.4179 H       1  ZINC001070580102    0.0800
     42 H42         1.0868    1.3961   51.4910 H       1  ZINC001070580102    0.0500
     43 H43         0.6231   -0.2688   51.0655 H       1  ZINC001070580102    0.0600
     44 H44         2.8618   -0.3267   51.6305 H       1  ZINC001070580102    0.3800
     45 H45        -2.9079    4.6485   48.3031 H       1  ZINC001070580102    0.4400
     46 H46        -7.3837    3.1271   54.9470 H       1  ZINC001070580102    0.0900
     47 H47        -7.0276    1.6488   55.8722 H       1  ZINC001070580102    0.0800
     48 H48        -5.7076    2.5430   55.0808 H       1  ZINC001070580102    0.1100
@<TRIPOS>BOND
     1     1     2    1
     2     1    27    1
     3     1    28    1
     4     1    29    1
     5     2    26    1
     6     2     3    2
     7     3     4    1
     8     3    30    1
     9     4     5    1
    10     4    24    2
    11     5     6    2
    12     5     7   am
    13     7     8    1
    14     7    31    1
    15     8     9    1
    16     8    32    1
    17     8    33    1
    18     9    23    1
    19     9    10    2
    20    10    11    1
    21    11    12    1
    22    11    22    2
    23    12    13    1
    24    12    18    1
    25    12    14    1
    26    14    15    1
    27    14    34    1
    28    14    35    1
    29    15    16    1
    30    16    17    1
    31    16    36    1
    32    16    37    1
    33    17    18    1
    34    17    38    1
    35    17    39    1
    36    18    19    1
    37    19    20    1
    38    19    40    1
    39    19    41    1
    40    20    21    1
    41    20    42    1
    42    20    43    1
    43    21    44    1
    44    22    23    1
    45    23    45    1
    46    24    25    1
    47    24    26    1
    48    25    46    1
    49    25    47    1
    50    25    48    1
@<TRIPOS>SUBSTRUCTURE
     1 ZINC001070580102        1 TEMP              0 ****  ****    0 ROOT


##########                                Name:    ZINC000129637895
##########                DOCK_Rotatable_Bonds:                   7
##########                         Heavy_Atoms:                  26
##########                    Molecular_Weight:             374.464
##########                DOCK_Rotatable_Bonds:                   7
##########                       Formal_Charge:        -5.51343e-07
##########                     HBond_Acceptors:                   8
##########                        HBond_Donors:                   1
##########                         Heavy_Atoms:                  26
##########                          Grid_Score:          -34.605904
##########                     Grid_vdw_energy:          -33.825218
##########                      Grid_es_energy:           -0.780684
##########           Internal_energy_repulsive:           25.660870

@<TRIPOS>MOLECULE
ZINC000129637895
 48 50 1 0 0
SMALL
USER_CHARGES


@<TRIPOS>ATOM
      1 C1         -7.3395   -0.2810   50.9604 C.3     1  ZINC000129637895   -0.1500
      2 C2         -6.9959   -0.2801   52.4513 C.3     1  ZINC000129637895   -0.0500
      3 C3         -7.3920    1.0416   53.0573 C.2     1  ZINC000129637895    0.0300
      4 C4         -6.5533    2.0906   53.1325 C.2     1  ZINC000129637895   -0.0200
      5 N5         -5.2351    2.1220   52.6793 N.am    1  ZINC000129637895   -0.5900
      6 C6         -4.4964    3.2388   52.8324 C.2     1  ZINC000129637895    0.5000
      7 O7         -4.9784    4.2171   53.3661 O.2     1  ZINC000129637895   -0.4800
      8 C8         -3.0858    3.2730   52.3457 C.2     1  ZINC000129637895    0.5200
      9 O9         -2.1689    3.2588   53.1408 O.2     1  ZINC000129637895   -0.5100
     10 N10        -2.8302    3.3196   51.0231 N.am    1  ZINC000129637895   -0.5800
     11 C11        -1.4477    3.3476   50.5220 C.3     1  ZINC000129637895    0.0800
     12 C12        -1.2916    2.2518   49.4624 C.3     1  ZINC000129637895    0.0400
     13 N13        -2.3284    2.4175   48.4348 N.3     1  ZINC000129637895   -0.4900
     14 C14        -2.1207    1.5399   47.3683 C.ar    1  ZINC000129637895    0.1500
     15 C15        -2.2192    1.9988   46.0606 C.ar    1  ZINC000129637895   -0.2100
     16 C16        -2.0133    1.1306   45.0058 C.ar    1  ZINC000129637895   -0.0500
     17 C17        -1.7095   -0.1954   45.2481 C.ar    1  ZINC000129637895   -0.2300
     18 C18        -1.6097   -0.6595   46.5525 C.ar    1  ZINC000129637895    0.1500
     19 O19        -1.3104   -1.9638   46.7890 O.3     1  ZINC000129637895   -0.3200
     20 C20        -0.2040   -2.2291   47.6534 C.3     1  ZINC000129637895    0.0300
     21 C21        -1.8100    0.2092   47.6133 C.ar    1  ZINC000129637895   -0.1700
     22 C22        -3.6727    2.2479   49.0019 C.3     1  ZINC000129637895    0.0400
     23 C23        -3.9263    3.3375   50.0426 C.3     1  ZINC000129637895    0.1100
     24 S24        -7.4171    3.4183   53.9044 S.3     1  ZINC000129637895    0.2400
     25 C25        -8.8113    2.4399   54.0495 C.2     1  ZINC000129637895   -0.0300
     26 N26        -8.5913    1.2698   53.5536 N.2     1  ZINC000129637895   -0.4500
     27 H27        -8.4117   -0.1303   50.8345 H       1  ZINC000129637895    0.0600
     28 H28        -6.7985    0.5237   50.4624 H       1  ZINC000129637895    0.0500
     29 H29        -7.0529   -1.2370   50.5221 H       1  ZINC000129637895    0.0700
     30 H30        -7.5368   -1.0848   52.9493 H       1  ZINC000129637895    0.0900
     31 H31        -5.9237   -0.4307   52.5772 H       1  ZINC000129637895    0.0700
     32 H32        -4.8497    1.3401   52.2540 H       1  ZINC000129637895    0.4300
     33 H33        -1.2395    4.3203   50.0763 H       1  ZINC000129637895    0.0900
     34 H34        -0.7563    3.1631   51.3443 H       1  ZINC000129637895    0.1400
     35 H35        -0.3070    2.3292   49.0015 H       1  ZINC000129637895    0.1000
     36 H36        -1.3980    1.2739   49.9320 H       1  ZINC000129637895    0.0500
     37 H37        -2.4573    3.0345   45.8685 H       1  ZINC000129637895    0.1300
     38 H38        -2.0903    1.4890   43.9899 H       1  ZINC000129637895    0.1300
     39 H39        -1.5498   -0.8717   44.4213 H       1  ZINC000129637895    0.1300
     40 H40         0.7008   -1.7932   47.2300 H       1  ZINC000129637895    0.0600
     41 H41        -0.3948   -1.7903   48.6328 H       1  ZINC000129637895    0.0600
     42 H42        -0.0741   -3.3064   47.7571 H       1  ZINC000129637895    0.1000
     43 H43        -1.7324   -0.1500   48.6289 H       1  ZINC000129637895    0.1300
     44 H44        -4.4148    2.3224   48.2071 H       1  ZINC000129637895    0.1000
     45 H45        -3.7460    1.2701   49.4781 H       1  ZINC000129637895    0.0500
     46 H46        -4.8740    3.1487   50.5468 H       1  ZINC000129637895    0.1100
     47 H47        -3.9562    4.3111   49.5535 H       1  ZINC000129637895    0.0900
     48 H48        -9.7450    2.7577   54.4898 H       1  ZINC000129637895    0.2000
@<TRIPOS>BOND
     1     1     2    1
     2     1    27    1
     3     1    28    1
     4     1    29    1
     5     2     3    1
     6     2    30    1
     7     2    31    1
     8     3    26    1
     9     3     4    2
    10     4     5    1
    11     4    24    1
    12     5     6   am
    13     5    32    1
    14     6     7    2
    15     6     8    1
    16     8     9    2
    17     8    10   am
    18    10    23    1
    19    10    11    1
    20    11    12    1
    21    11    33    1
    22    11    34    1
    23    12    13    1
    24    12    35    1
    25    12    36    1
    26    13    14    1
    27    13    22    1
    28    14    21   ar
    29    14    15   ar
    30    15    16   ar
    31    15    37    1
    32    16    17   ar
    33    16    38    1
    34    17    18   ar
    35    17    39    1
    36    18    19    1
    37    18    21   ar
    38    19    20    1
    39    20    40    1
    40    20    41    1
    41    20    42    1
    42    21    43    1
    43    22    23    1
    44    22    44    1
    45    22    45    1
    46    23    46    1
    47    23    47    1
    48    24    25    1
    49    25    26    2
    50    25    48    1
@<TRIPOS>SUBSTRUCTURE
     1 ZINC000129637895        1 TEMP              0 ****  ****    0 ROOT


##########                                Name:    ZINC000434204837
##########                DOCK_Rotatable_Bonds:                   7
##########                         Heavy_Atoms:                  29
##########                    Molecular_Weight:             406.511
##########                DOCK_Rotatable_Bonds:                   7
##########                       Formal_Charge:          -0.0200002
##########                     HBond_Acceptors:                   8
##########                        HBond_Donors:                   0
##########                         Heavy_Atoms:                  29
##########                          Grid_Score:          -34.591671
##########                     Grid_vdw_energy:          -34.881187
##########                      Grid_es_energy:            0.289518
##########           Internal_energy_repulsive:           26.059084

@<TRIPOS>MOLECULE
ZINC000434204837
 51 54 1 0 0
SMALL
USER_CHARGES


@<TRIPOS>ATOM
      1 C1         -1.0936    2.8991   51.8213 C.3     1  ZINC000434204837   -0.1300
      2 C2         -1.5542    2.1609   50.5908 C.ar    1  ZINC000434204837   -0.0700
      3 C3         -0.6314    1.5321   49.7764 C.ar    1  ZINC000434204837   -0.1200
      4 C4         -1.0540    0.8548   48.6475 C.ar    1  ZINC000434204837   -0.1100
      5 C5         -2.3991    0.8063   48.3336 C.ar    1  ZINC000434204837   -0.1300
      6 C6         -3.3222    1.4346   49.1488 C.ar    1  ZINC000434204837   -0.0900
      7 C7         -2.9003    2.1080   50.2797 C.ar    1  ZINC000434204837   -0.1000
      8 C8         -3.9065    2.7928   51.1683 C.3     1  ZINC000434204837    0.0100
      9 C9         -5.0241    1.8354   51.4927 C.2     1  ZINC000434204837    0.2000
     10 N10        -5.7634    1.8361   52.5757 N.2     1  ZINC000434204837   -0.4600
     11 C11        -6.6219    0.8114   52.4288 C.2     1  ZINC000434204837    0.1700
     12 C12        -7.6859    0.3914   53.4099 C.3     1  ZINC000434204837   -0.0300
     13 S13        -8.2887   -1.2593   52.9762 S.3     1  ZINC000434204837    0.0900
     14 C14       -10.0042   -0.9139   52.7696 C.2     1  ZINC000434204837    0.2100
     15 N15       -10.6275   -0.7006   51.6307 N.2     1  ZINC000434204837   -0.3300
     16 N16       -11.8757   -0.4792   51.8356 N.2     1  ZINC000434204837   -0.0200
     17 N17       -12.1409   -0.5327   53.0958 N.2     1  ZINC000434204837   -0.0700
     18 N18       -10.9333   -0.8236   53.7544 N.pl3   1  ZINC000434204837   -0.3100
     19 C19       -10.7309   -0.9788   55.1331 C.ar    1  ZINC000434204837    0.1100
     20 C20       -10.7005   -2.2488   55.6930 C.ar    1  ZINC000434204837   -0.1100
     21 C21       -10.5005   -2.3987   57.0515 C.ar    1  ZINC000434204837   -0.0900
     22 C22       -10.3312   -1.2851   57.8536 C.ar    1  ZINC000434204837   -0.0600
     23 C23       -10.1132   -1.4520   59.3355 C.3     1  ZINC000434204837   -0.0600
     24 C24       -11.3202   -2.1621   59.9518 C.3     1  ZINC000434204837   -0.1500
     25 C25        -8.8535   -2.2868   59.5747 C.3     1  ZINC000434204837   -0.1500
     26 C26       -10.3610   -0.0188   57.2989 C.ar    1  ZINC000434204837   -0.1000
     27 C27       -10.5549    0.1369   55.9403 C.ar    1  ZINC000434204837   -0.0900
     28 N28        -6.3657    0.2501   51.2851 N.2     1  ZINC000434204837   -0.3600
     29 O29        -5.4549    0.8267   50.7290 O.3     1  ZINC000434204837    0.0900
     30 H30        -1.0763    2.2154   52.6700 H       1  ZINC000434204837    0.0800
     31 H31        -0.0922    3.2956   51.6537 H       1  ZINC000434204837    0.0700
     32 H32        -1.7793    3.7203   52.0302 H       1  ZINC000434204837    0.0700
     33 H33         0.4197    1.5700   50.0216 H       1  ZINC000434204837    0.1300
     34 H34        -0.3328    0.3641   48.0107 H       1  ZINC000434204837    0.1200
     35 H35        -2.7291    0.2778   47.4514 H       1  ZINC000434204837    0.1300
     36 H36        -4.3733    1.3969   48.9035 H       1  ZINC000434204837    0.1300
     37 H37        -3.4202    3.1098   52.0909 H       1  ZINC000434204837    0.1200
     38 H38        -4.3122    3.6638   50.6537 H       1  ZINC000434204837    0.1200
     39 H39        -7.2658    0.3721   54.4155 H       1  ZINC000434204837    0.1300
     40 H40        -8.5126    1.1009   53.3750 H       1  ZINC000434204837    0.1400
     41 H41       -10.8334   -3.1188   55.0671 H       1  ZINC000434204837    0.1400
     42 H42       -10.4767   -3.3863   57.4876 H       1  ZINC000434204837    0.1400
     43 H43        -9.9929   -0.4723   59.7976 H       1  ZINC000434204837    0.0800
     44 H44       -11.4403   -3.1419   59.4895 H       1  ZINC000434204837    0.0600
     45 H45       -11.1625   -2.2828   61.0235 H       1  ZINC000434204837    0.0600
     46 H46       -12.2177   -1.5673   59.7813 H       1  ZINC000434204837    0.0600
     47 H47        -7.9935   -1.7810   59.1357 H       1  ZINC000434204837    0.0600
     48 H48        -8.6958   -2.4075   60.6465 H       1  ZINC000434204837    0.0600
     49 H49        -8.9737   -3.2666   59.1126 H       1  ZINC000434204837    0.0600
     50 H50       -10.2288    0.8490   57.9281 H       1  ZINC000434204837    0.1400
     51 H51       -10.5781    1.1262   55.5075 H       1  ZINC000434204837    0.1400
@<TRIPOS>BOND
     1     1     2    1
     2     1    30    1
     3     1    31    1
     4     1    32    1
     5     2     7   ar
     6     2     3   ar
     7     3     4   ar
     8     3    33    1
     9     4     5   ar
    10     4    34    1
    11     5     6   ar
    12     5    35    1
    13     6     7   ar
    14     6    36    1
    15     7     8    1
    16     8     9    1
    17     8    37    1
    18     8    38    1
    19     9    29    1
    20     9    10    2
    21    10    11    1
    22    11    12    1
    23    11    28    2
    24    12    13    1
    25    12    39    1
    26    12    40    1
    27    13    14    1
    28    14    18    1
    29    14    15    2
    30    15    16    1
    31    16    17    2
    32    17    18    1
    33    18    19    1
    34    19    27   ar
    35    19    20   ar
    36    20    21   ar
    37    20    41    1
    38    21    22   ar
    39    21    42    1
    40    22    23    1
    41    22    26   ar
    42    23    24    1
    43    23    25    1
    44    23    43    1
    45    24    44    1
    46    24    45    1
    47    24    46    1
    48    25    47    1
    49    25    48    1
    50    25    49    1
    51    26    27   ar
    52    26    50    1
    53    27    51    1
    54    28    29    1
@<TRIPOS>SUBSTRUCTURE
     1 ZINC000434204837        1 TEMP              0 ****  ****    0 ROOT


##########                                Name:    ZINC000031496632
##########                DOCK_Rotatable_Bonds:                   8
##########                         Heavy_Atoms:                  30
##########                    Molecular_Weight:             423.539
##########                DOCK_Rotatable_Bonds:                   8
##########                       Formal_Charge:          -0.0100009
##########                     HBond_Acceptors:                   8
##########                        HBond_Donors:                   1
##########                         Heavy_Atoms:                  30
##########                          Grid_Score:          -34.564396
##########                     Grid_vdw_energy:          -34.465584
##########                      Grid_es_energy:           -0.098811
##########           Internal_energy_repulsive:           10.986915

@<TRIPOS>MOLECULE
ZINC000031496632
 55 58 1 0 0
SMALL
USER_CHARGES


@<TRIPOS>ATOM
      1 C1         -8.1617   -0.8329   50.8442 C.3     1  ZINC000031496632   -0.1600
      2 C2         -7.2393   -1.0887   52.0378 C.3     1  ZINC000031496632    0.1600
      3 C3         -5.8881   -0.4146   51.7916 C.3     1  ZINC000031496632   -0.1600
      4 N4         -7.8465   -0.5366   53.2513 N.pl3   1  ZINC000031496632   -0.3900
      5 N5         -7.5553    0.7134   53.8060 N.2     1  ZINC000031496632   -0.2300
      6 C6         -8.2649    0.9021   54.8816 C.2     1  ZINC000031496632    0.0800
      7 C7         -9.0917   -0.2832   55.0806 C.ar    1  ZINC000031496632   -0.2100
      8 C8        -10.0366   -0.6631   56.0405 C.ar    1  ZINC000031496632    0.0100
      9 C9        -10.6397   -1.9038   55.9047 C.ar    1  ZINC000031496632    0.0500
     10 N10       -11.5927   -2.3329   56.8377 N.am    1  ZINC000031496632   -0.6600
     11 C11       -12.8056   -1.7469   56.8803 C.2     1  ZINC000031496632    0.5500
     12 O12       -13.0729   -0.8454   56.1088 O.2     1  ZINC000031496632   -0.4900
     13 C13       -13.8081   -2.1982   57.8617 C.ar    1  ZINC000031496632   -0.1300
     14 C14       -14.3579   -3.4791   57.7666 C.ar    1  ZINC000031496632   -0.0600
     15 C15       -15.2948   -3.8951   58.6871 C.ar    1  ZINC000031496632   -0.1400
     16 C16       -15.6967   -3.0493   59.7090 C.ar    1  ZINC000031496632   -0.0600
     17 C17       -15.1641   -1.7813   59.8169 C.ar    1  ZINC000031496632   -0.1500
     18 C18       -14.2128   -1.3455   58.9020 C.ar    1  ZINC000031496632   -0.0600
     19 S19       -13.5299    0.2731   59.0371 S.3     1  ZINC000031496632    0.0900
     20 C20       -12.9538    0.3308   60.7563 C.3     1  ZINC000031496632   -0.2000
     21 C21       -12.0974   -0.8764   61.0397 C.2     1  ZINC000031496632    0.5500
     22 O22       -12.5906   -1.8665   61.5370 O.2     1  ZINC000031496632   -0.5200
     23 N23       -10.7834   -0.8555   60.7408 N.am    1  ZINC000031496632   -0.6200
     24 C24        -9.8380   -1.9607   60.9558 C.3     1  ZINC000031496632    0.1000
     25 C25        -8.4497   -1.4734   60.4902 C.3     1  ZINC000031496632   -0.1300
     26 C26        -8.5804    0.0709   60.5655 C.3     1  ZINC000031496632   -0.1300
     27 C27       -10.0573    0.2772   60.1381 C.3     1  ZINC000031496632    0.1000
     28 C28       -10.2890   -2.7201   54.8307 C.ar    1  ZINC000031496632    0.1600
     29 N29        -9.3978   -2.3402   53.9420 N.ar    1  ZINC000031496632   -0.4900
     30 C30        -8.7940   -1.1610   54.0192 C.ar    1  ZINC000031496632    0.3000
     31 H31        -7.7100   -1.2435   49.9412 H       1  ZINC000031496632    0.0800
     32 H32        -9.1245   -1.3131   51.0195 H       1  ZINC000031496632    0.0600
     33 H33        -8.3081    0.2403   50.7214 H       1  ZINC000031496632    0.0700
     34 H34        -7.0930   -2.1618   52.1604 H       1  ZINC000031496632    0.1100
     35 H35        -5.4363   -0.8253   50.8886 H       1  ZINC000031496632    0.0800
     36 H36        -6.0344    0.6586   51.6688 H       1  ZINC000031496632    0.0700
     37 H37        -5.2309   -0.5968   52.6418 H       1  ZINC000031496632    0.0600
     38 H38        -8.2446    1.7782   55.5130 H       1  ZINC000031496632    0.2000
     39 H39       -10.2880   -0.0095   56.8627 H       1  ZINC000031496632    0.1500
     40 H40       -11.3796   -3.0518   57.4530 H       1  ZINC000031496632    0.4100
     41 H41       -14.0491   -4.1423   56.9721 H       1  ZINC000031496632    0.1300
     42 H42       -15.7186   -4.8856   58.6120 H       1  ZINC000031496632    0.1300
     43 H43       -16.4320   -3.3850   60.4253 H       1  ZINC000031496632    0.1300
     44 H44       -15.4832   -1.1283   60.6158 H       1  ZINC000031496632    0.1300
     45 H45       -12.3681    1.2366   60.9129 H       1  ZINC000031496632    0.1100
     46 H46       -13.8127    0.3327   61.4273 H       1  ZINC000031496632    0.1100
     47 H47        -9.8044   -2.2191   62.0143 H       1  ZINC000031496632    0.0700
     48 H48       -10.1422   -2.8281   60.3699 H       1  ZINC000031496632    0.0700
     49 H49        -7.6703   -1.8278   61.1648 H       1  ZINC000031496632    0.0900
     50 H50        -8.2515   -1.7942   59.4676 H       1  ZINC000031496632    0.0800
     51 H51        -8.4104    0.4283   61.5811 H       1  ZINC000031496632    0.0800
     52 H52        -7.9011    0.5550   59.8638 H       1  ZINC000031496632    0.0900
     53 H53       -10.1444    0.2556   59.0518 H       1  ZINC000031496632    0.0700
     54 H54       -10.4378    1.2198   60.5315 H       1  ZINC000031496632    0.0800
     55 H55       -10.7599   -3.6864   54.7263 H       1  ZINC000031496632    0.1700
@<TRIPOS>BOND
     1     1     2    1
     2     1    31    1
     3     1    32    1
     4     1    33    1
     5     2     3    1
     6     2     4    1
     7     2    34    1
     8     3    35    1
     9     3    36    1
    10     3    37    1
    11     4    30    1
    12     4     5    1
    13     5     6    2
    14     6     7    1
    15     6    38    1
    16     7    30   ar
    17     7     8   ar
    18     8     9   ar
    19     8    39    1
    20     9    10    1
    21     9    28   ar
    22    10    11   am
    23    10    40    1
    24    11    12    2
    25    11    13    1
    26    13    18   ar
    27    13    14   ar
    28    14    15   ar
    29    14    41    1
    30    15    16   ar
    31    15    42    1
    32    16    17   ar
    33    16    43    1
    34    17    18   ar
    35    17    44    1
    36    18    19    1
    37    19    20    1
    38    20    21    1
    39    20    45    1
    40    20    46    1
    41    21    22    2
    42    21    23   am
    43    23    27    1
    44    23    24    1
    45    24    25    1
    46    24    47    1
    47    24    48    1
    48    25    26    1
    49    25    49    1
    50    25    50    1
    51    26    27    1
    52    26    51    1
    53    26    52    1
    54    27    53    1
    55    27    54    1
    56    28    29   ar
    57    28    55    1
    58    29    30   ar
@<TRIPOS>SUBSTRUCTURE
     1 ZINC000031496632        1 TEMP              0 ****  ****    0 ROOT


##########                                Name:    ZINC000051488227
##########                DOCK_Rotatable_Bonds:                   8
##########                         Heavy_Atoms:                  30
##########                    Molecular_Weight:             403.478
##########                DOCK_Rotatable_Bonds:                   8
##########                       Formal_Charge:           0.0199996
##########                     HBond_Acceptors:                   5
##########                        HBond_Donors:                   0
##########                         Heavy_Atoms:                  30
##########                          Grid_Score:          -34.529892
##########                     Grid_vdw_energy:          -34.282265
##########                      Grid_es_energy:           -0.247626
##########           Internal_energy_repulsive:           26.173002

@<TRIPOS>MOLECULE
ZINC000051488227
 55 58 1 0 0
SMALL
USER_CHARGES


@<TRIPOS>ATOM
      1 O1         -0.1069    3.1807   47.8597 O.2     1  ZINC000051488227   -0.5000
      2 C2         -0.4980    2.0519   48.0413 C.2     1  ZINC000051488227    0.4800
      3 O3         -1.5760    1.8306   48.8099 O.3     1  ZINC000051488227   -0.3400
      4 C4         -2.3096    2.9969   49.2680 C.3     1  ZINC000051488227    0.1100
      5 C5         -3.4138    2.5628   50.1972 C.ar    1  ZINC000051488227   -0.1400
      6 C6         -3.8592    3.4189   51.1873 C.ar    1  ZINC000051488227   -0.0500
      7 C7         -4.8712    3.0233   52.0404 C.ar    1  ZINC000051488227   -0.1500
      8 C8         -5.4410    1.7659   51.9026 C.ar    1  ZINC000051488227    0.1500
      9 O9         -6.4370    1.3745   52.7402 O.3     1  ZINC000051488227   -0.3100
     10 C10        -6.9827    0.0700   52.5344 C.3     1  ZINC000051488227    0.1100
     11 C11        -8.0669   -0.1869   53.5492 C.ar    1  ZINC000051488227    0.1200
     12 C12        -7.9967    0.4156   54.7907 C.ar    1  ZINC000051488227   -0.1500
     13 C13        -8.9996    0.1730   55.7171 C.ar    1  ZINC000051488227   -0.0700
     14 C14       -10.0398   -0.6702   55.3579 C.ar    1  ZINC000051488227   -0.1700
     15 C15       -10.0425   -1.2371   54.0972 C.ar    1  ZINC000051488227    0.1100
     16 N16        -9.0743   -0.9798   53.2400 N.ar    1  ZINC000051488227   -0.4800
     17 C17        -4.9926    0.9089   50.9080 C.ar    1  ZINC000051488227   -0.2100
     18 C18        -3.9836    1.3111   50.0545 C.ar    1  ZINC000051488227   -0.0500
     19 C19         0.2208    0.8931   47.3998 C.3     1  ZINC000051488227    0.0000
     20 C20        -0.2696    0.7163   45.9858 C.ar    1  ZINC000051488227   -0.0900
     21 C21        -1.5449    0.2371   45.7514 C.ar    1  ZINC000051488227   -0.1100
     22 C22        -1.9948    0.0750   44.4544 C.ar    1  ZINC000051488227   -0.1200
     23 C23        -1.1696    0.3924   43.3918 C.ar    1  ZINC000051488227   -0.1100
     24 C24         0.1054    0.8724   43.6262 C.ar    1  ZINC000051488227   -0.1200
     25 C25         0.5538    1.0387   44.9232 C.ar    1  ZINC000051488227   -0.1000
     26 C26         1.7279    1.1665   47.3909 C.3     1  ZINC000051488227   -0.1400
     27 C27         2.2290    1.2672   48.8340 C.3     1  ZINC000051488227    0.0600
     28 O28         1.9176    0.0588   49.5303 O.3     1  ZINC000051488227   -0.3800
     29 C29         0.5191   -0.2239   49.6117 C.3     1  ZINC000051488227    0.0500
     30 C30        -0.0505   -0.3846   48.1998 C.3     1  ZINC000051488227   -0.1400
     31 H31        -1.6324    3.6676   49.7969 H       1  ZINC000051488227    0.0800
     32 H32        -2.7390    3.5158   48.4109 H       1  ZINC000051488227    0.0800
     33 H33        -3.4153    4.3977   51.2941 H       1  ZINC000051488227    0.1300
     34 H34        -5.2183    3.6922   52.8139 H       1  ZINC000051488227    0.1400
     35 H35        -7.4022    0.0059   51.5303 H       1  ZINC000051488227    0.0900
     36 H36        -6.1953   -0.6752   52.6474 H       1  ZINC000051488227    0.0900
     37 H37        -7.1710    1.0668   55.0366 H       1  ZINC000051488227    0.1400
     38 H38        -8.9710    0.6298   56.6953 H       1  ZINC000051488227    0.1400
     39 H39       -10.8376   -0.8819   56.0544 H       1  ZINC000051488227    0.1400
     40 H40       -10.8490   -1.8954   53.8098 H       1  ZINC000051488227    0.1600
     41 H41        -5.4343   -0.0706   50.7990 H       1  ZINC000051488227    0.1300
     42 H42        -3.6344    0.6445   49.2799 H       1  ZINC000051488227    0.1300
     43 H43        -2.1896   -0.0109   46.5816 H       1  ZINC000051488227    0.1300
     44 H44        -2.9908   -0.3002   44.2712 H       1  ZINC000051488227    0.1300
     45 H45        -1.5208    0.2650   42.3784 H       1  ZINC000051488227    0.1200
     46 H46         0.7503    1.1202   42.7960 H       1  ZINC000051488227    0.1200
     47 H47         1.5498    1.4137   45.1063 H       1  ZINC000051488227    0.1300
     48 H48         2.2431    0.3514   46.8825 H       1  ZINC000051488227    0.0900
     49 H49         1.9251    2.1038   46.8706 H       1  ZINC000051488227    0.0900
     50 H50         3.3082    1.4191   48.8343 H       1  ZINC000051488227    0.1000
     51 H51         1.7432    2.1078   49.3296 H       1  ZINC000051488227    0.0500
     52 H52         0.3668   -1.1463   50.1722 H       1  ZINC000051488227    0.1000
     53 H53         0.0110    0.5971   50.1174 H       1  ZINC000051488227    0.0700
     54 H54        -1.1253   -0.5565   48.2580 H       1  ZINC000051488227    0.0900
     55 H55         0.4286   -1.2310   47.7078 H       1  ZINC000051488227    0.0900
@<TRIPOS>BOND
     1     1     2    2
     2     2     3    1
     3     2    19    1
     4     3     4    1
     5     4     5    1
     6     4    31    1
     7     4    32    1
     8     5    18   ar
     9     5     6   ar
    10     6     7   ar
    11     6    33    1
    12     7     8   ar
    13     7    34    1
    14     8     9    1
    15     8    17   ar
    16     9    10    1
    17    10    11    1
    18    10    35    1
    19    10    36    1
    20    11    16   ar
    21    11    12   ar
    22    12    13   ar
    23    12    37    1
    24    13    14   ar
    25    13    38    1
    26    14    15   ar
    27    14    39    1
    28    15    16   ar
    29    15    40    1
    30    17    18   ar
    31    17    41    1
    32    18    42    1
    33    19    30    1
    34    19    20    1
    35    19    26    1
    36    20    25   ar
    37    20    21   ar
    38    21    22   ar
    39    21    43    1
    40    22    23   ar
    41    22    44    1
    42    23    24   ar
    43    23    45    1
    44    24    25   ar
    45    24    46    1
    46    25    47    1
    47    26    27    1
    48    26    48    1
    49    26    49    1
    50    27    28    1
    51    27    50    1
    52    27    51    1
    53    28    29    1
    54    29    30    1
    55    29    52    1
    56    29    53    1
    57    30    54    1
    58    30    55    1
@<TRIPOS>SUBSTRUCTURE
     1 ZINC000051488227        1 TEMP              0 ****  ****    0 ROOT


##########                                Name:    ZINC000410354665
##########                DOCK_Rotatable_Bonds:                   7
##########                         Heavy_Atoms:                  29
##########                    Molecular_Weight:             417.889
##########                DOCK_Rotatable_Bonds:                   7
##########                       Formal_Charge:        -3.72529e-08
##########                     HBond_Acceptors:                   7
##########                        HBond_Donors:                   1
##########                         Heavy_Atoms:                  29
##########                          Grid_Score:          -34.498161
##########                     Grid_vdw_energy:          -34.737896
##########                      Grid_es_energy:            0.239734
##########           Internal_energy_repulsive:           19.194912

@<TRIPOS>MOLECULE
ZINC000410354665
 53 56 1 0 0
SMALL
USER_CHARGES


@<TRIPOS>ATOM
      1 C1         -7.8463   -1.0335   51.6331 C.3     1  ZINC000410354665    0.0200
      2 O2         -8.0680   -0.5773   52.9690 O.3     1  ZINC000410354665   -0.3000
      3 C3         -7.5178    0.6181   53.3126 C.ar    1  ZINC000410354665    0.0900
      4 C4         -6.6179    1.2332   52.4646 C.ar    1  ZINC000410354665   -0.1100
      5 C5         -6.0547    2.4619   52.8207 C.ar    1  ZINC000410354665   -0.1400
      6 C6         -5.0927    3.1239   51.9178 C.2     1  ZINC000410354665    0.5700
      7 O7         -5.0261    4.3375   51.8847 O.2     1  ZINC000410354665   -0.5300
      8 N8         -4.2883    2.3831   51.1301 N.am    1  ZINC000410354665   -0.7200
      9 C9         -3.3323    3.0401   50.2353 C.3     1  ZINC000410354665    0.1700
     10 C10        -2.2884    2.0452   49.7976 C.ar    1  ZINC000410354665   -0.1000
     11 C11        -1.0468    2.0358   50.4048 C.ar    1  ZINC000410354665   -0.0900
     12 C12        -0.0854    1.1255   50.0041 C.ar    1  ZINC000410354665   -0.0300
     13 Cl13        1.4732    1.1169   50.7686 Cl      1  ZINC000410354665   -0.0400
     14 C14        -0.3661    0.2189   48.9918 C.ar    1  ZINC000410354665    0.0700
     15 O15         0.5923   -0.6661   48.6025 O.3     1  ZINC000410354665   -0.2900
     16 C16         0.1526   -1.7994   47.8460 C.3     1  ZINC000410354665    0.0200
     17 C17        -0.8084   -1.3062   46.7559 C.3     1  ZINC000410354665    0.0200
     18 O18        -1.9142   -0.6573   47.3933 O.3     1  ZINC000410354665   -0.3000
     19 C19        -1.6160    0.2265   48.3845 C.ar    1  ZINC000410354665    0.0600
     20 C20        -2.5763    1.1398   48.7936 C.ar    1  ZINC000410354665   -0.0900
     21 C21        -6.4045    3.0622   54.0322 C.ar    1  ZINC000410354665   -0.0800
     22 C22        -7.3030    2.4428   54.8742 C.ar    1  ZINC000410354665   -0.1900
     23 C23        -7.8668    1.2254   54.5183 C.ar    1  ZINC000410354665    0.1400
     24 O24        -8.7514    0.6192   55.3512 O.3     1  ZINC000410354665   -0.2900
     25 C25        -9.0117    1.2622   56.6005 C.3     1  ZINC000410354665    0.0700
     26 C26       -10.2102    0.5912   57.3162 C.3     1  ZINC000410354665   -0.1500
     27 C27        -9.9680    0.9547   58.8023 C.3     1  ZINC000410354665   -0.1200
     28 C28        -8.4372    0.8618   58.9698 C.3     1  ZINC000410354665   -0.1200
     29 C29        -7.8292    1.0574   57.5698 C.3     1  ZINC000410354665   -0.1200
     30 H30        -8.2560   -0.3093   50.9291 H       1  ZINC000410354665    0.0600
     31 H31        -6.7758   -1.1432   51.4596 H       1  ZINC000410354665    0.0600
     32 H32        -8.3378   -1.9960   51.4916 H       1  ZINC000410354665    0.1000
     33 H33        -6.3496    0.7657   51.5288 H       1  ZINC000410354665    0.1500
     34 H34        -4.3423    1.4150   51.1556 H       1  ZINC000410354665    0.4000
     35 H35        -3.8577    3.4239   49.3608 H       1  ZINC000410354665    0.0800
     36 H36        -2.8505    3.8647   50.7606 H       1  ZINC000410354665    0.0900
     37 H37        -0.8268    2.7406   51.1930 H       1  ZINC000410354665    0.1500
     38 H38         1.0106   -2.2892   47.3855 H       1  ZINC000410354665    0.1300
     39 H39        -0.3637   -2.5008   48.5014 H       1  ZINC000410354665    0.0800
     40 H40        -0.2939   -0.6002   46.1041 H       1  ZINC000410354665    0.0800
     41 H41        -1.1667   -2.1534   46.1711 H       1  ZINC000410354665    0.1300
     42 H42        -3.5491    1.1461   48.3244 H       1  ZINC000410354665    0.1400
     43 H43        -5.9707    4.0115   54.3095 H       1  ZINC000410354665    0.1300
     44 H44        -7.5723    2.9080   55.8110 H       1  ZINC000410354665    0.1400
     45 H45        -9.2013    2.3249   56.4493 H       1  ZINC000410354665    0.0800
     46 H46       -11.1535    1.0097   56.9650 H       1  ZINC000410354665    0.0700
     47 H47       -10.1892   -0.4893   57.1744 H       1  ZINC000410354665    0.0800
     48 H48       -10.3136    1.9676   59.0086 H       1  ZINC000410354665    0.0700
     49 H49       -10.4673    0.2396   59.4561 H       1  ZINC000410354665    0.0700
     50 H50        -8.0869    1.6453   59.6418 H       1  ZINC000410354665    0.0700
     51 H51        -8.1633   -0.1175   59.3623 H       1  ZINC000410354665    0.0700
     52 H52        -7.2602    0.1730   57.2831 H       1  ZINC000410354665    0.0800
     53 H53        -7.1838    1.9357   57.5625 H       1  ZINC000410354665    0.0700
@<TRIPOS>BOND
     1     1     2    1
     2     1    30    1
     3     1    31    1
     4     1    32    1
     5     2     3    1
     6     3    23   ar
     7     3     4   ar
     8     4     5   ar
     9     4    33    1
    10     5     6    1
    11     5    21   ar
    12     6     7    2
    13     6     8   am
    14     8     9    1
    15     8    34    1
    16     9    10    1
    17     9    35    1
    18     9    36    1
    19    10    20   ar
    20    10    11   ar
    21    11    12   ar
    22    11    37    1
    23    12    13    1
    24    12    14   ar
    25    14    19   ar
    26    14    15    1
    27    15    16    1
    28    16    17    1
    29    16    38    1
    30    16    39    1
    31    17    18    1
    32    17    40    1
    33    17    41    1
    34    18    19    1
    35    19    20   ar
    36    20    42    1
    37    21    22   ar
    38    21    43    1
    39    22    23   ar
    40    22    44    1
    41    23    24    1
    42    24    25    1
    43    25    29    1
    44    25    26    1
    45    25    45    1
    46    26    27    1
    47    26    46    1
    48    26    47    1
    49    27    28    1
    50    27    48    1
    51    27    49    1
    52    28    29    1
    53    28    50    1
    54    28    51    1
    55    29    52    1
    56    29    53    1
@<TRIPOS>SUBSTRUCTURE
     1 ZINC000410354665        1 TEMP              0 ****  ****    0 ROOT


##########                                Name:    ZINC000015179664
##########                DOCK_Rotatable_Bonds:                   8
##########                         Heavy_Atoms:                  25
##########                    Molecular_Weight:             361.422
##########                DOCK_Rotatable_Bonds:                   8
##########                       Formal_Charge:        -2.23517e-07
##########                     HBond_Acceptors:                   8
##########                        HBond_Donors:                   1
##########                         Heavy_Atoms:                  25
##########                          Grid_Score:          -34.493221
##########                     Grid_vdw_energy:          -33.301796
##########                      Grid_es_energy:           -1.191427
##########           Internal_energy_repulsive:           24.073488

@<TRIPOS>MOLECULE
ZINC000015179664
 44 45 1 0 0
SMALL
USER_CHARGES


@<TRIPOS>ATOM
      1 C1         -0.5842   -2.3125   47.4128 C.3     1  ZINC000015179664   -0.1600
      2 C2         -1.1620   -0.8961   47.3826 C.3     1  ZINC000015179664    0.1800
      3 H3         -2.2504   -0.9481   47.3573 H       1  ZINC000015179664    0.1200
      4 C4         -0.6647   -0.1768   46.1553 C.ar    1  ZINC000015179664   -0.1000
      5 C5         -1.5392    0.1223   45.1277 C.ar    1  ZINC000015179664   -0.0700
      6 C6         -1.0829    0.7823   44.0017 C.ar    1  ZINC000015179664   -0.1200
      7 C7          0.2477    1.1433   43.9040 C.ar    1  ZINC000015179664   -0.0500
      8 C8          1.1223    0.8451   44.9324 C.ar    1  ZINC000015179664   -0.0400
      9 N9          2.5473    1.2313   44.8275 N.pl3   1  ZINC000015179664    0.0300
     10 O10         2.9495    1.8120   43.8353 O.2     1  ZINC000015179664   -0.1600
     11 O11         3.3177    0.9685   45.7336 O.2     1  ZINC000015179664   -0.1500
     12 C12         0.6652    0.1891   46.0599 C.ar    1  ZINC000015179664   -0.0400
     13 N13        -0.7355   -0.1692   48.5810 N.am    1  ZINC000015179664   -0.6100
     14 C14         0.2792   -0.7468   49.4659 C.3     1  ZINC000015179664    0.0600
     15 C15        -1.2766    1.0310   48.8693 C.2     1  ZINC000015179664    0.5200
     16 O16        -0.9245    1.6322   49.8621 O.2     1  ZINC000015179664   -0.5200
     17 C17        -2.3190    1.6261   47.9581 C.3     1  ZINC000015179664   -0.1500
     18 C18        -3.1942    2.5988   48.7511 C.3     1  ZINC000015179664    0.1300
     19 N19        -4.0406    1.8472   49.6811 N.am    1  ZINC000015179664   -0.7300
     20 C20        -4.5530    2.4564   50.7686 C.2     1  ZINC000015179664    0.5800
     21 O21        -4.3115    3.6299   50.9788 O.2     1  ZINC000015179664   -0.5300
     22 C22        -5.4048    1.7017   51.7021 C.2     1  ZINC000015179664   -0.1500
     23 C23        -5.7327    0.3934   51.5276 C.2     1  ZINC000015179664   -0.2200
     24 S24        -6.7296   -0.1557   52.7964 S.3     1  ZINC000015179664    0.1900
     25 C25        -6.7111    1.4099   53.5892 C.2     1  ZINC000015179664   -0.2300
     26 C26        -5.9733    2.2729   52.9007 C.2     1  ZINC000015179664   -0.0900
     27 H27        -0.9015   -2.8534   46.5212 H       1  ZINC000015179664    0.0800
     28 H28         0.5042   -2.2606   47.4381 H       1  ZINC000015179664    0.0600
     29 H29        -0.9439   -2.8328   48.3005 H       1  ZINC000015179664    0.0700
     30 H30        -2.5788   -0.1598   45.2040 H       1  ZINC000015179664    0.1500
     31 H31        -1.7660    1.0152   43.1983 H       1  ZINC000015179664    0.1500
     32 H32         0.6043    1.6582   43.0241 H       1  ZINC000015179664    0.1600
     33 H33         1.3483   -0.0439   46.8632 H       1  ZINC000015179664    0.1600
     34 H34         1.2712   -0.4609   49.1164 H       1  ZINC000015179664    0.0600
     35 H35         0.1303   -0.3761   50.4800 H       1  ZINC000015179664    0.0800
     36 H36         0.1908   -1.8333   49.4595 H       1  ZINC000015179664    0.0800
     37 H37        -1.8281    2.1598   47.1443 H       1  ZINC000015179664    0.1000
     38 H38        -2.9401    0.8300   47.5479 H       1  ZINC000015179664    0.1000
     39 H39        -2.5591    3.2851   49.3113 H       1  ZINC000015179664    0.0800
     40 H40        -3.8231    3.1647   48.0638 H       1  ZINC000015179664    0.0800
     41 H41        -4.2323    0.9111   49.5142 H       1  ZINC000015179664    0.4000
     42 H42        -5.4056   -0.2152   50.6974 H       1  ZINC000015179664    0.1700
     43 H43        -7.2252    1.6387   54.5110 H       1  ZINC000015179664    0.1700
     44 H44        -5.8202    3.2986   53.2020 H       1  ZINC000015179664    0.1600
@<TRIPOS>BOND
     1     1     2    1
     2     1    27    1
     3     1    28    1
     4     1    29    1
     5     2     3    1
     6     2     4    1
     7     2    13    1
     8     4    12   ar
     9     4     5   ar
    10     5     6   ar
    11     5    30    1
    12     6     7   ar
    13     6    31    1
    14     7     8   ar
    15     7    32    1
    16     8     9    1
    17     8    12   ar
    18     9    10    2
    19     9    11    2
    20    12    33    1
    21    13    14    1
    22    13    15   am
    23    14    34    1
    24    14    35    1
    25    14    36    1
    26    15    16    2
    27    15    17    1
    28    17    18    1
    29    17    37    1
    30    17    38    1
    31    18    19    1
    32    18    39    1
    33    18    40    1
    34    19    20   am
    35    19    41    1
    36    20    21    2
    37    20    22    1
    38    22    26    1
    39    22    23    2
    40    23    24    1
    41    23    42    1
    42    24    25    1
    43    25    26    2
    44    25    43    1
    45    26    44    1
@<TRIPOS>SUBSTRUCTURE
     1 ZINC000015179664        1 TEMP              0 ****  ****    0 ROOT


##########                                Name:    ZINC000991934963
##########                DOCK_Rotatable_Bonds:                   8
##########                         Heavy_Atoms:                  27
##########                    Molecular_Weight:             370.495
##########                DOCK_Rotatable_Bonds:                   8
##########                       Formal_Charge:          -0.0499997
##########                     HBond_Acceptors:                   6
##########                        HBond_Donors:                   1
##########                         Heavy_Atoms:                  27
##########                          Grid_Score:          -34.483044
##########                     Grid_vdw_energy:          -35.121632
##########                      Grid_es_energy:            0.638589
##########           Internal_energy_repulsive:           18.797510

@<TRIPOS>MOLECULE
ZINC000991934963
 57 61 1 0 0
SMALL
USER_CHARGES


@<TRIPOS>ATOM
      1 C1         -7.5442   -1.1033   51.7474 C.3     1  ZINC000991934963    0.0400
      2 O2         -6.2333   -0.5356   51.7102 O.3     1  ZINC000991934963   -0.2900
      3 C3         -6.0988    0.7318   52.1690 C.ar    1  ZINC000991934963    0.5000
      4 N4         -6.8127    1.1192   53.2134 N.ar    1  ZINC000991934963   -0.5700
      5 C5         -6.7057    2.3500   53.6871 C.ar    1  ZINC000991934963    0.1900
      6 C6         -5.8332    3.2358   53.0755 C.ar    1  ZINC000991934963   -0.2700
      7 C7         -5.1010    2.7962   51.9837 C.ar    1  ZINC000991934963    0.2200
      8 C8         -4.1398    3.7238   51.2862 C.3     1  ZINC000991934963    0.1000
      9 N9         -2.9715    2.9619   50.8250 N.3     1  ZINC000991934963   -0.4900
     10 C10        -1.9719    2.7932   51.9268 C.3     1  ZINC000991934963    0.0400
     11 C11        -0.6018    3.2833   51.3616 C.3     1  ZINC000991934963   -0.1400
     12 C12        -0.8166    3.1039   49.8602 C.3     1  ZINC000991934963    0.1700
     13 N13        -0.7044    1.7036   49.4447 N.am    1  ZINC000991934963   -0.7000
     14 C14         0.4683    1.0529   49.5781 C.2     1  ZINC000991934963    0.5200
     15 O15         1.4312    1.6272   50.0408 O.2     1  ZINC000991934963   -0.5300
     16 C16         0.5832   -0.3881   49.1523 C.3     1  ZINC000991934963   -0.1100
     17 C17        -0.5174   -0.7099   48.1393 C.3     1  ZINC000991934963   -0.1300
     18 H18        -1.4978   -0.2878   48.3604 H       1  ZINC000991934963    0.1200
     19 C19        -0.4750   -2.0810   47.4618 C.3     1  ZINC000991934963   -0.1700
     20 C20        -0.1124   -0.8233   46.6683 C.3     1  ZINC000991934963   -0.1200
     21 H21         0.9381   -0.6689   46.4220 H       1  ZINC000991934963    0.1000
     22 C22        -1.1145   -0.3363   45.6195 C.3     1  ZINC000991934963   -0.1200
     23 C23        -1.8971    0.9411   45.9299 C.3     1  ZINC000991934963   -0.1800
     24 C24        -0.7864    0.9610   44.8779 C.3     1  ZINC000991934963   -0.1800
     25 C25        -0.1506    4.0654   48.8818 C.3     1  ZINC000991934963   -0.1200
     26 C26        -1.1719    4.1048   47.7026 C.3     1  ZINC000991934963   -0.1200
     27 C27        -2.5553    3.7438   48.3240 C.3     1  ZINC000991934963   -0.1000
     28 C28        -2.2867    3.6562   49.7882 C.3     1  ZINC000991934963    0.0500
     29 H29        -2.1895    4.6841   50.1377 H       1  ZINC000991934963    0.0400
     30 N30        -5.2527    1.5506   51.5650 N.ar    1  ZINC000991934963   -0.5000
     31 H31        -8.2191   -0.4993   51.1410 H       1  ZINC000991934963    0.0600
     32 H32        -7.5117   -2.1189   51.3526 H       1  ZINC000991934963    0.1100
     33 H33        -7.9017   -1.1250   52.7769 H       1  ZINC000991934963    0.0600
     34 H34        -7.2915    2.6605   54.5398 H       1  ZINC000991934963    0.1700
     35 H35        -5.7262    4.2465   53.4410 H       1  ZINC000991934963    0.1500
     36 H36        -4.6346    4.1836   50.4306 H       1  ZINC000991934963    0.1000
     37 H37        -3.8165    4.5004   51.9794 H       1  ZINC000991934963    0.0600
     38 H38        -2.2588    3.3974   52.7874 H       1  ZINC000991934963    0.0600
     39 H39        -1.9043    1.7434   52.2126 H       1  ZINC000991934963    0.0800
     40 H40        -0.4274    4.3301   51.6101 H       1  ZINC000991934963    0.0800
     41 H41         0.2157    2.6565   51.7180 H       1  ZINC000991934963    0.0900
     42 H42        -1.4742    1.2446   49.0735 H       1  ZINC000991934963    0.4000
     43 H43         1.5583   -0.5550   48.6946 H       1  ZINC000991934963    0.1000
     44 H44         0.4753   -1.0341   50.0234 H       1  ZINC000991934963    0.0900
     45 H45         0.3370   -2.7538   47.7377 H       1  ZINC000991934963    0.0900
     46 H46        -1.4275   -2.5609   47.2368 H       1  ZINC000991934963    0.1000
     47 H47        -1.6286   -1.1189   45.0615 H       1  ZINC000991934963    0.1000
     48 H48        -2.9265    0.9992   45.5761 H       1  ZINC000991934963    0.0900
     49 H49        -1.6982    1.4347   46.8812 H       1  ZINC000991934963    0.0900
     50 H50         0.1433    1.4676   45.1370 H       1  ZINC000991934963    0.0900
     51 H51        -1.0850    1.0322   43.8320 H       1  ZINC000991934963    0.0900
     52 H52        -0.0352    5.0534   49.3275 H       1  ZINC000991934963    0.0800
     53 H53         0.8109    3.6748   48.5486 H       1  ZINC000991934963    0.0800
     54 H54        -1.2048    5.1034   47.2670 H       1  ZINC000991934963    0.0700
     55 H55        -0.8981    3.3719   46.9436 H       1  ZINC000991934963    0.0700
     56 H56        -3.2832    4.5279   48.1159 H       1  ZINC000991934963    0.0700
     57 H57        -2.9063    2.7851   47.9425 H       1  ZINC000991934963    0.0700
@<TRIPOS>BOND
     1     1     2    1
     2     1    31    1
     3     1    32    1
     4     1    33    1
     5     2     3    1
     6     3    30   ar
     7     3     4   ar
     8     4     5   ar
     9     5     6   ar
    10     5    34    1
    11     6     7   ar
    12     6    35    1
    13     7     8    1
    14     7    30   ar
    15     8     9    1
    16     8    36    1
    17     8    37    1
    18     9    28    1
    19     9    10    1
    20    10    11    1
    21    10    38    1
    22    10    39    1
    23    11    12    1
    24    11    40    1
    25    11    41    1
    26    12    28    1
    27    12    13    1
    28    12    25    1
    29    13    14   am
    30    13    42    1
    31    14    15    2
    32    14    16    1
    33    16    17    1
    34    16    43    1
    35    16    44    1
    36    17    18    1
    37    17    20    1
    38    17    19    1
    39    19    20    1
    40    19    45    1
    41    19    46    1
    42    20    21    1
    43    20    22    1
    44    22    24    1
    45    22    23    1
    46    22    47    1
    47    23    24    1
    48    23    48    1
    49    23    49    1
    50    24    50    1
    51    24    51    1
    52    25    26    1
    53    25    52    1
    54    25    53    1
    55    26    27    1
    56    26    54    1
    57    26    55    1
    58    27    28    1
    59    27    56    1
    60    27    57    1
    61    28    29    1
@<TRIPOS>SUBSTRUCTURE
     1 ZINC000991934963        1 TEMP              0 ****  ****    0 ROOT


##########                                Name:    ZINC000805177769
##########                DOCK_Rotatable_Bonds:                  10
##########                         Heavy_Atoms:                  30
##########                    Molecular_Weight:             417.548
##########                DOCK_Rotatable_Bonds:                  10
##########                       Formal_Charge:           0.0199995
##########                     HBond_Acceptors:                   7
##########                        HBond_Donors:                   1
##########                         Heavy_Atoms:                  30
##########                          Grid_Score:          -34.450588
##########                     Grid_vdw_energy:          -31.891890
##########                      Grid_es_energy:           -2.558697
##########           Internal_energy_repulsive:           64.572060

@<TRIPOS>MOLECULE
ZINC000805177769
 65 66 1 0 0
SMALL
USER_CHARGES


@<TRIPOS>ATOM
      1 C1        -10.3923   -2.2046   60.1137 C.3     1  ZINC000805177769   -0.1200
      2 C2        -10.0019   -1.5781   58.7998 C.ar    1  ZINC000805177769   -0.0800
      3 C3         -9.4419   -0.3148   58.7760 C.ar    1  ZINC000805177769   -0.1200
      4 C4         -9.0838    0.2600   57.5706 C.ar    1  ZINC000805177769   -0.1100
      5 C5         -9.2856   -0.4289   56.3895 C.ar    1  ZINC000805177769   -0.0900
      6 C6         -8.8957    0.1977   55.0756 C.3     1  ZINC000805177769   -0.0900
      7 C7         -7.6526    1.0674   55.2744 C.3     1  ZINC000805177769    0.1500
      8 H8         -7.1469    0.7736   56.1942 H       1  ZINC000805177769    0.1000
      9 C9         -8.0679    2.5370   55.3678 C.3     1  ZINC000805177769   -0.1700
     10 N10        -6.7443    0.8878   54.1391 N.am    1  ZINC000805177769   -0.6900
     11 C11        -7.2056    1.0197   52.8796 C.2     1  ZINC000805177769    0.5100
     12 O12        -8.3736    1.2857   52.6860 O.2     1  ZINC000805177769   -0.5100
     13 C13        -6.2786    0.8382   51.7215 C.2     1  ZINC000805177769    0.5200
     14 O14        -6.3824   -0.1380   51.0083 O.2     1  ZINC000805177769   -0.5200
     15 N15        -5.3271    1.7589   51.4693 N.am    1  ZINC000805177769   -0.5900
     16 C16        -5.0911    2.9829   52.2488 C.3     1  ZINC000805177769    0.1100
     17 C17        -3.8894    3.7092   51.6086 C.3     1  ZINC000805177769   -0.1500
     18 C18        -3.1593    2.5701   50.8490 C.3     1  ZINC000805177769    0.1500
     19 H19        -2.5125    2.0050   51.5201 H       1  ZINC000805177769    0.1200
     20 N20        -2.3994    3.0991   49.7137 N.am    1  ZINC000805177769   -0.5900
     21 C21        -1.8645    4.4622   49.7614 C.3     1  ZINC000805177769    0.0800
     22 C22        -2.1926    2.3319   48.6251 C.2     1  ZINC000805177769    0.6600
     23 O23        -2.6349    1.2008   48.5861 O.2     1  ZINC000805177769   -0.5600
     24 O24        -1.4956    2.8186   47.5810 O.3     1  ZINC000805177769   -0.3600
     25 C25        -0.6575    1.8819   46.8539 C.3     1  ZINC000805177769    0.1400
     26 C26         0.3402    2.6552   45.9892 C.3     1  ZINC000805177769   -0.1800
     27 C27         0.1036    1.0014   47.8469 C.3     1  ZINC000805177769   -0.1400
     28 C28        -1.5332    1.0024   45.9593 C.3     1  ZINC000805177769   -0.1800
     29 C29        -4.3467    1.7023   50.3697 C.3     1  ZINC000805177769    0.0900
     30 C30        -9.8445   -1.6932   56.4135 C.ar    1  ZINC000805177769   -0.0800
     31 C31       -10.0640   -2.4446   55.1257 C.3     1  ZINC000805177769   -0.1200
     32 C32       -10.1989   -2.2694   57.6188 C.ar    1  ZINC000805177769   -0.1200
     33 H33        -9.5477   -2.7656   60.5139 H       1  ZINC000805177769    0.0700
     34 H34       -10.6761   -1.4233   60.8188 H       1  ZINC000805177769    0.0700
     35 H35       -11.2352   -2.8781   59.9589 H       1  ZINC000805177769    0.0700
     36 H36        -9.2842    0.2235   59.6989 H       1  ZINC000805177769    0.1200
     37 H37        -8.6468    1.2474   57.5520 H       1  ZINC000805177769    0.1200
     38 H38        -8.6786   -0.5857   54.3496 H       1  ZINC000805177769    0.0800
     39 H39        -9.7162    0.8150   54.7098 H       1  ZINC000805177769    0.0900
     40 H40        -8.5736    2.8307   54.4480 H       1  ZINC000805177769    0.0600
     41 H41        -8.7436    2.6706   56.2126 H       1  ZINC000805177769    0.0700
     42 H42        -7.1823    3.1565   55.5095 H       1  ZINC000805177769    0.0600
     43 H43        -5.8109    0.6739   54.2938 H       1  ZINC000805177769    0.4100
     44 H44        -5.9733    3.6221   52.2115 H       1  ZINC000805177769    0.0900
     45 H45        -4.8608    2.7254   53.2825 H       1  ZINC000805177769    0.0900
     46 H46        -4.2286    4.4792   50.9157 H       1  ZINC000805177769    0.0900
     47 H47        -3.2438    4.1367   52.3758 H       1  ZINC000805177769    0.0900
     48 H48        -0.8622    4.4443   50.1895 H       1  ZINC000805177769    0.0600
     49 H49        -1.8212    4.8711   48.7521 H       1  ZINC000805177769    0.0800
     50 H50        -2.5121    5.0852   50.3785 H       1  ZINC000805177769    0.0800
     51 H51         0.9640    3.2820   46.6265 H       1  ZINC000805177769    0.0600
     52 H52         0.9692    1.9521   45.4433 H       1  ZINC000805177769    0.0700
     53 H53        -0.2021    3.2826   45.2817 H       1  ZINC000805177769    0.0900
     54 H54        -0.6072    0.4505   48.4630 H       1  ZINC000805177769    0.0700
     55 H55         0.7326    0.2983   47.3011 H       1  ZINC000805177769    0.0800
     56 H56         0.7275    1.6281   48.4843 H       1  ZINC000805177769    0.0700
     57 H57        -2.0754    1.6296   45.2518 H       1  ZINC000805177769    0.0900
     58 H58        -0.9041    0.2992   45.4135 H       1  ZINC000805177769    0.0700
     59 H59        -2.2439    0.4515   46.5753 H       1  ZINC000805177769    0.0600
     60 H60        -4.0219    0.6760   50.1991 H       1  ZINC000805177769    0.0900
     61 H61        -4.7795    2.1202   49.4608 H       1  ZINC000805177769    0.0800
     62 H62        -9.1794   -3.0387   54.8965 H       1  ZINC000805177769    0.0700
     63 H63       -10.9264   -3.1028   55.2316 H       1  ZINC000805177769    0.0700
     64 H64       -10.2450   -1.7357   54.3177 H       1  ZINC000805177769    0.0700
     65 H65       -10.6356   -3.2570   57.6376 H       1  ZINC000805177769    0.1200
@<TRIPOS>BOND
     1     1     2    1
     2     1    33    1
     3     1    34    1
     4     1    35    1
     5     2    32   ar
     6     2     3   ar
     7     3     4   ar
     8     3    36    1
     9     4     5   ar
    10     4    37    1
    11     5     6    1
    12     5    30   ar
    13     6     7    1
    14     6    38    1
    15     6    39    1
    16     7     8    1
    17     7     9    1
    18     7    10    1
    19     9    40    1
    20     9    41    1
    21     9    42    1
    22    10    11   am
    23    10    43    1
    24    11    12    2
    25    11    13    1
    26    13    14    2
    27    13    15   am
    28    15    29    1
    29    15    16    1
    30    16    17    1
    31    16    44    1
    32    16    45    1
    33    17    18    1
    34    17    46    1
    35    17    47    1
    36    18    19    1
    37    18    20    1
    38    18    29    1
    39    20    21    1
    40    20    22   am
    41    21    48    1
    42    21    49    1
    43    21    50    1
    44    22    23    2
    45    22    24    1
    46    24    25    1
    47    25    26    1
    48    25    27    1
    49    25    28    1
    50    26    51    1
    51    26    52    1
    52    26    53    1
    53    27    54    1
    54    27    55    1
    55    27    56    1
    56    28    57    1
    57    28    58    1
    58    28    59    1
    59    29    60    1
    60    29    61    1
    61    30    31    1
    62    30    32   ar
    63    31    62    1
    64    31    63    1
    65    31    64    1
    66    32    65    1
@<TRIPOS>SUBSTRUCTURE
     1 ZINC000805177769        1 TEMP              0 ****  ****    0 ROOT


##########                                Name:    ZINC000457806032
##########                DOCK_Rotatable_Bonds:                   8
##########                         Heavy_Atoms:                  24
##########                    Molecular_Weight:             387.911
##########                DOCK_Rotatable_Bonds:                   8
##########                       Formal_Charge:        -1.49012e-07
##########                     HBond_Acceptors:                   9
##########                        HBond_Donors:                   2
##########                         Heavy_Atoms:                  24
##########                          Grid_Score:          -34.378502
##########                     Grid_vdw_energy:          -33.984875
##########                      Grid_es_energy:           -0.393627
##########           Internal_energy_repulsive:            5.391619

@<TRIPOS>MOLECULE
ZINC000457806032
 42 43 1 0 0
SMALL
USER_CHARGES


@<TRIPOS>ATOM
      1 C1         -9.5076   -1.6991   53.9238 C.3     1  ZINC000457806032    0.0800
      2 N2         -9.3452   -1.0959   52.5986 N.am    1  ZINC000457806032   -1.0100
      3 C3        -10.5197   -0.8407   51.7611 C.3     1  ZINC000457806032    0.0900
      4 S4         -7.8339   -0.7026   52.0474 S.o2    1  ZINC000457806032    2.7900
      5 O5         -7.0461   -1.8797   52.1620 O.2     1  ZINC000457806032   -0.9700
      6 O6         -8.0218   -0.0095   50.8212 O.2     1  ZINC000457806032   -0.9700
      7 N7         -7.1943    0.3937   53.1110 N.am    1  ZINC000457806032   -1.1300
      8 C8         -7.8704    1.6731   53.3394 C.3     1  ZINC000457806032    0.1100
      9 C9         -6.8269    2.7652   53.5826 C.3     1  ZINC000457806032    0.1100
     10 N10        -5.7106    2.5904   52.6501 N.am    1  ZINC000457806032   -0.7300
     11 C11        -4.4794    3.0256   52.9835 C.2     1  ZINC000457806032    0.5800
     12 O12        -4.2948    3.5622   54.0594 O.2     1  ZINC000457806032   -0.5300
     13 C13        -3.3579    2.8514   52.0455 C.2     1  ZINC000457806032   -0.1500
     14 C14        -2.0986    3.3030   52.3026 C.2     1  ZINC000457806032   -0.2200
     15 S15        -1.0535    2.9322   51.0063 S.3     1  ZINC000457806032    0.2400
     16 C16        -2.3487    2.1552   50.1090 C.2     1  ZINC000457806032   -0.1700
     17 C17        -2.2030    1.5339   48.7748 C.ar    1  ZINC000457806032   -0.0100
     18 C18        -1.2324    0.5544   48.5606 C.ar    1  ZINC000457806032   -0.0900
     19 C19        -1.1010   -0.0215   47.3140 C.ar    1  ZINC000457806032   -0.1000
     20 C20        -1.9296    0.3709   46.2763 C.ar    1  ZINC000457806032   -0.0300
     21 Cl21       -1.7581   -0.3580   44.7101 Cl      1  ZINC000457806032   -0.0600
     22 C22        -2.8947    1.3419   46.4830 C.ar    1  ZINC000457806032   -0.1000
     23 C23        -3.0392    1.9208   47.7269 C.ar    1  ZINC000457806032   -0.1000
     24 C24        -3.4889    2.2036   50.8161 C.2     1  ZINC000457806032   -0.0700
     25 H25        -9.4555   -2.7844   53.8379 H       1  ZINC000457806032    0.0600
     26 H26        -8.7131   -1.3482   54.5825 H       1  ZINC000457806032    0.0800
     27 H27       -10.4749   -1.4133   54.3370 H       1  ZINC000457806032    0.0800
     28 H28       -10.9033    0.1583   51.9680 H       1  ZINC000457806032    0.0600
     29 H29       -10.2391   -0.9118   50.7102 H       1  ZINC000457806032    0.0700
     30 H30       -11.2908   -1.5788   51.9819 H       1  ZINC000457806032    0.0700
     31 H31        -6.3720    0.1887   53.5829 H       1  ZINC000457806032    0.4200
     32 H32        -8.4677    1.9297   52.4643 H       1  ZINC000457806032    0.0700
     33 H33        -8.5199    1.5905   54.2109 H       1  ZINC000457806032    0.0900
     34 H34        -7.2814    3.7435   53.4258 H       1  ZINC000457806032    0.0800
     35 H35        -6.4596    2.6952   54.6064 H       1  ZINC000457806032    0.0800
     36 H36        -5.8576    2.1613   51.7926 H       1  ZINC000457806032    0.4000
     37 H37        -1.8031    3.8232   53.2018 H       1  ZINC000457806032    0.1700
     38 H38        -0.5852    0.2481   49.3691 H       1  ZINC000457806032    0.1400
     39 H39        -0.3503   -0.7797   47.1470 H       1  ZINC000457806032    0.1400
     40 H40        -3.5381    1.6440   45.6699 H       1  ZINC000457806032    0.1400
     41 H41        -3.7926    2.6779   47.8871 H       1  ZINC000457806032    0.1300
     42 H42        -4.4212    1.7877   50.4634 H       1  ZINC000457806032    0.1600
@<TRIPOS>BOND
     1     1     2    1
     2     1    25    1
     3     1    26    1
     4     1    27    1
     5     2     3    1
     6     2     4   am
     7     3    28    1
     8     3    29    1
     9     3    30    1
    10     4     5    2
    11     4     6    2
    12     4     7   am
    13     7     8    1
    14     7    31    1
    15     8     9    1
    16     8    32    1
    17     8    33    1
    18     9    10    1
    19     9    34    1
    20     9    35    1
    21    10    11   am
    22    10    36    1
    23    11    12    2
    24    11    13    1
    25    13    24    1
    26    13    14    2
    27    14    15    1
    28    14    37    1
    29    15    16    1
    30    16    17    1
    31    16    24    2
    32    17    23   ar
    33    17    18   ar
    34    18    19   ar
    35    18    38    1
    36    19    20   ar
    37    19    39    1
    38    20    21    1
    39    20    22   ar
    40    22    23   ar
    41    22    40    1
    42    23    41    1
    43    24    42    1
@<TRIPOS>SUBSTRUCTURE
     1 ZINC000457806032        1 TEMP              0 ****  ****    0 ROOT


##########                                Name:    ZINC000807524472
##########                DOCK_Rotatable_Bonds:                   9
##########                         Heavy_Atoms:                  28
##########                    Molecular_Weight:             410.534
##########                DOCK_Rotatable_Bonds:                   9
##########                       Formal_Charge:           0.0200006
##########                     HBond_Acceptors:                   8
##########                        HBond_Donors:                   0
##########                         Heavy_Atoms:                  28
##########                          Grid_Score:          -34.375534
##########                     Grid_vdw_energy:          -34.139091
##########                      Grid_es_energy:           -0.236443
##########           Internal_energy_repulsive:           15.236038

@<TRIPOS>MOLECULE
ZINC000807524472
 58 60 1 0 0
SMALL
USER_CHARGES


@<TRIPOS>ATOM
      1 C1        -14.1260   -6.0439   56.0679 C.3     1  ZINC000807524472   -0.1500
      2 C2        -14.2353   -4.5602   56.4252 C.3     1  ZINC000807524472    0.0600
      3 O3        -14.2961   -4.4155   57.8455 O.3     1  ZINC000807524472   -0.3800
      4 C4        -14.1366   -3.0701   58.3001 C.3     1  ZINC000807524472    0.0600
      5 C5        -12.7025   -2.6083   58.0337 C.3     1  ZINC000807524472    0.0700
      6 O6        -11.7742   -3.6361   58.4697 O.3     1  ZINC000807524472   -0.3500
      7 C7        -10.4844   -3.2737   58.6155 C.2     1  ZINC000807524472    0.5000
      8 O8         -9.7396   -3.9428   59.3043 O.2     1  ZINC000807524472   -0.4600
      9 C9         -9.9774   -2.0670   57.9400 C.ar    1  ZINC000807524472   -0.1200
     10 C10        -9.8894   -2.0260   56.5458 C.ar    1  ZINC000807524472    0.0400
     11 C11        -9.4148   -0.8940   55.9202 C.ar    1  ZINC000807524472   -0.7000
     12 S12        -9.3055   -0.8450   54.1623 S.o2    1  ZINC000807524472    2.6900
     13 O13        -8.1280   -0.1118   53.8538 O.2     1  ZINC000807524472   -0.9500
     14 O14        -9.5361   -2.1718   53.7088 O.2     1  ZINC000807524472   -0.9500
     15 N15       -10.5783    0.0634   53.6171 N.am    1  ZINC000807524472   -0.9900
     16 C16       -10.3453    1.2839   52.8331 C.3     1  ZINC000807524472    0.1200
     17 C17       -11.1426    1.1916   51.5282 C.3     1  ZINC000807524472   -0.1400
     18 C18       -12.6142    0.9237   51.8521 C.3     1  ZINC000807524472   -0.1200
     19 C19       -12.7410   -0.4103   52.5911 C.3     1  ZINC000807524472   -0.1400
     20 C20       -11.9621   -0.3394   53.9030 C.3     1  ZINC000807524472    0.1200
     21 C21        -9.0233    0.2065   56.6661 C.ar    1  ZINC000807524472    0.0200
     22 C22        -9.1036    0.1820   58.0434 C.ar    1  ZINC000807524472   -0.1800
     23 C23        -9.5848   -0.9480   58.6926 C.ar    1  ZINC000807524472    0.2000
     24 N24        -9.6670   -0.9752   60.0782 N.3     1  ZINC000807524472   -0.4800
     25 C25        -8.3241   -0.8221   60.6941 C.3     1  ZINC000807524472    0.0400
     26 C26        -8.6463   -0.3521   62.1348 C.3     1  ZINC000807524472   -0.1200
     27 C27        -9.8600    0.5833   61.9300 C.3     1  ZINC000807524472   -0.1300
     28 C28       -10.4738    0.1568   60.5835 C.3     1  ZINC000807524472    0.0400
     29 H29       -14.9978   -6.5748   56.4502 H       1  ZINC000807524472    0.0600
     30 H30       -14.0796   -6.1542   54.9846 H       1  ZINC000807524472    0.0700
     31 H31       -13.2227   -6.4595   56.5144 H       1  ZINC000807524472    0.0700
     32 H32       -13.3635   -4.0292   56.0429 H       1  ZINC000807524472    0.0500
     33 H33       -15.1386   -4.1445   55.9786 H       1  ZINC000807524472    0.0500
     34 H34       -14.8321   -2.4217   57.7671 H       1  ZINC000807524472    0.0600
     35 H35       -14.3413   -3.0213   59.3697 H       1  ZINC000807524472    0.0700
     36 H36       -12.5709   -2.4288   56.9667 H       1  ZINC000807524472    0.0900
     37 H37       -12.5093   -1.6872   58.5837 H       1  ZINC000807524472    0.0800
     38 H38       -10.1927   -2.8808   55.9595 H       1  ZINC000807524472    0.1600
     39 H39       -10.6759    2.1526   53.4026 H       1  ZINC000807524472    0.0800
     40 H40        -9.2831    1.3756   52.6067 H       1  ZINC000807524472    0.0900
     41 H41       -11.0554    2.1304   50.9814 H       1  ZINC000807524472    0.0800
     42 H42       -10.7501    0.3773   50.9191 H       1  ZINC000807524472    0.0700
     43 H43       -12.9991    1.7258   52.4819 H       1  ZINC000807524472    0.0700
     44 H44       -13.1879    0.8821   50.9263 H       1  ZINC000807524472    0.0700
     45 H45       -13.7916   -0.6116   52.8008 H       1  ZINC000807524472    0.0800
     46 H46       -12.3335   -1.2095   51.9720 H       1  ZINC000807524472    0.0700
     47 H47       -11.9675   -1.3172   54.3844 H       1  ZINC000807524472    0.0900
     48 H48       -12.4221    0.3971   54.5617 H       1  ZINC000807524472    0.0800
     49 H49        -8.6526    1.0891   56.1659 H       1  ZINC000807524472    0.1500
     50 H50        -8.7960    1.0437   58.6171 H       1  ZINC000807524472    0.1400
     51 H51        -7.7969   -1.7761   60.7095 H       1  ZINC000807524472    0.0900
     52 H52        -7.7417   -0.0681   60.1646 H       1  ZINC000807524472    0.0500
     53 H53        -8.9145   -1.1993   62.7661 H       1  ZINC000807524472    0.0800
     54 H54        -7.8047    0.1954   62.5593 H       1  ZINC000807524472    0.0800
     55 H55       -10.5824    0.4475   62.7349 H       1  ZINC000807524472    0.0800
     56 H56        -9.5336    1.6222   61.8849 H       1  ZINC000807524472    0.0700
     57 H57       -10.4329    0.9863   59.8775 H       1  ZINC000807524472    0.0500
     58 H58       -11.5066   -0.1593   60.7298 H       1  ZINC000807524472    0.0900
@<TRIPOS>BOND
     1     1     2    1
     2     1    29    1
     3     1    30    1
     4     1    31    1
     5     2     3    1
     6     2    32    1
     7     2    33    1
     8     3     4    1
     9     4     5    1
    10     4    34    1
    11     4    35    1
    12     5     6    1
    13     5    36    1
    14     5    37    1
    15     6     7    1
    16     7     8    2
    17     7     9    1
    18     9    23   ar
    19     9    10   ar
    20    10    11   ar
    21    10    38    1
    22    11    12    1
    23    11    21   ar
    24    12    13    2
    25    12    14    2
    26    12    15   am
    27    15    20    1
    28    15    16    1
    29    16    17    1
    30    16    39    1
    31    16    40    1
    32    17    18    1
    33    17    41    1
    34    17    42    1
    35    18    19    1
    36    18    43    1
    37    18    44    1
    38    19    20    1
    39    19    45    1
    40    19    46    1
    41    20    47    1
    42    20    48    1
    43    21    22   ar
    44    21    49    1
    45    22    23   ar
    46    22    50    1
    47    23    24    1
    48    24    28    1
    49    24    25    1
    50    25    26    1
    51    25    51    1
    52    25    52    1
    53    26    27    1
    54    26    53    1
    55    26    54    1
    56    27    28    1
    57    27    55    1
    58    27    56    1
    59    28    57    1
    60    28    58    1
@<TRIPOS>SUBSTRUCTURE
     1 ZINC000807524472        1 TEMP              0 ****  ****    0 ROOT


##########                                Name:    ZINC000505965769
##########                DOCK_Rotatable_Bonds:                   9
##########                         Heavy_Atoms:                  29
##########                    Molecular_Weight:              419.88
##########                DOCK_Rotatable_Bonds:                   9
##########                       Formal_Charge:               -0.02
##########                     HBond_Acceptors:                   7
##########                        HBond_Donors:                   1
##########                         Heavy_Atoms:                  29
##########                          Grid_Score:          -34.366470
##########                     Grid_vdw_energy:          -34.023849
##########                      Grid_es_energy:           -0.342619
##########           Internal_energy_repulsive:           15.789588

@<TRIPOS>MOLECULE
ZINC000505965769
 52 54 1 0 0
SMALL
USER_CHARGES


@<TRIPOS>ATOM
      1 C1         -3.3341    3.5871   53.4195 C.3     1  ZINC000505965769    0.0200
      2 O2         -4.3592    3.7238   52.4332 O.3     1  ZINC000505965769   -0.3100
      3 C3         -5.4278    2.8944   52.5365 C.ar    1  ZINC000505965769    0.1800
      4 C4         -6.5688    3.3153   53.2114 C.ar    1  ZINC000505965769   -0.2200
      5 C5         -7.6495    2.4873   53.3201 C.ar    1  ZINC000505965769   -0.0200
      6 C6         -7.6122    1.2083   52.7510 C.ar    1  ZINC000505965769   -0.2100
      7 C7         -8.7724    0.3168   52.8660 C.2     1  ZINC000505965769    0.3900
      8 O8         -9.5991    0.2798   51.9790 O.2     1  ZINC000505965769   -0.4400
      9 C9         -8.9367   -0.5527   54.0858 C.3     1  ZINC000505965769   -0.1500
     10 C10       -10.1807   -1.4285   53.9242 C.3     1  ZINC000505965769   -0.1300
     11 C11       -10.2381   -2.4319   55.0471 C.2     1  ZINC000505965769    0.5200
     12 O12       -10.0342   -3.6061   54.8221 O.2     1  ZINC000505965769   -0.5300
     13 N13       -10.5158   -2.0244   56.3014 N.am    1  ZINC000505965769   -0.7200
     14 C14       -10.5733   -3.0001   57.3926 C.3     1  ZINC000505965769    0.1900
     15 H15        -9.9871   -3.8793   57.1253 H       1  ZINC000505965769    0.1100
     16 C16       -10.0107   -2.3838   58.6476 C.ar    1  ZINC000505965769   -0.1000
     17 C17       -10.3261   -2.9205   59.8819 C.ar    1  ZINC000505965769   -0.0900
     18 C18        -9.8107   -2.3561   61.0334 C.ar    1  ZINC000505965769   -0.1500
     19 C19        -8.9779   -1.2532   60.9504 C.ar    1  ZINC000505965769    0.1000
     20 F20        -8.4732   -0.7010   62.0754 F       1  ZINC000505965769   -0.1400
     21 C21        -8.6623   -0.7168   59.7134 C.ar    1  ZINC000505965769   -0.1500
     22 C22        -9.1749   -1.2858   58.5631 C.ar    1  ZINC000505965769   -0.0600
     23 C23       -12.0273   -3.4106   57.6336 C.3     1  ZINC000505965769    0.0800
     24 H24       -12.0724   -4.2550   58.3214 H       1  ZINC000505965769    0.0700
     25 C25       -12.8375   -2.2154   58.1958 C.3     1  ZINC000505965769   -0.1500
     26 C26       -14.2763   -2.6023   57.7573 C.3     1  ZINC000505965769   -0.1600
     27 C27       -14.0286   -3.3082   56.4069 C.3     1  ZINC000505965769    0.0500
     28 O28       -12.6634   -3.7459   56.3901 O.3     1  ZINC000505965769   -0.3700
     29 C29        -6.4625    0.7828   52.0704 C.ar    1  ZINC000505965769    0.0500
     30 Cl30       -6.4052   -0.8005   51.3611 Cl      1  ZINC000505965769   -0.0200
     31 C31        -5.3801    1.6289   51.9626 C.ar    1  ZINC000505965769   -0.1600
     32 H32        -2.9256    2.5772   53.3814 H       1  ZINC000505965769    0.0600
     33 H33        -2.5406    4.3076   53.2210 H       1  ZINC000505965769    0.1100
     34 H34        -3.7541    3.7721   54.4081 H       1  ZINC000505965769    0.0600
     35 H35        -6.6003    4.3010   53.6516 H       1  ZINC000505965769    0.1400
     36 H36        -8.5329    2.8189   53.8455 H       1  ZINC000505965769    0.1500
     37 H37        -8.0580   -1.1874   54.2007 H       1  ZINC000505965769    0.1100
     38 H38        -9.0479    0.0771   54.9685 H       1  ZINC000505965769    0.1100
     39 H39       -11.0722   -0.8018   53.9509 H       1  ZINC000505965769    0.1000
     40 H40       -10.1341   -1.9533   52.9699 H       1  ZINC000505965769    0.1000
     41 H41       -10.6776   -1.0851   56.4815 H       1  ZINC000505965769    0.4000
     42 H42       -10.9758   -3.7807   59.9465 H       1  ZINC000505965769    0.1300
     43 H43       -10.0578   -2.7751   61.9977 H       1  ZINC000505965769    0.1400
     44 H44        -8.0130    0.1436   59.6476 H       1  ZINC000505965769    0.1400
     45 H45        -8.9287   -0.8679   57.5981 H       1  ZINC000505965769    0.1400
     46 H46       -12.7584   -2.1631   59.2816 H       1  ZINC000505965769    0.0700
     47 H47       -12.5253   -1.2780   57.7353 H       1  ZINC000505965769    0.1000
     48 H48       -14.7298   -3.2860   58.4750 H       1  ZINC000505965769    0.0700
     49 H49       -14.8931   -1.7137   57.6232 H       1  ZINC000505965769    0.0800
     50 H50       -14.6923   -4.1677   56.3117 H       1  ZINC000505965769    0.0700
     51 H51       -14.2047   -2.6111   55.5876 H       1  ZINC000505965769    0.0700
     52 H52        -4.4922    1.3062   51.4392 H       1  ZINC000505965769    0.1500
@<TRIPOS>BOND
     1     1     2    1
     2     1    32    1
     3     1    33    1
     4     1    34    1
     5     2     3    1
     6     3    31   ar
     7     3     4   ar
     8     4     5   ar
     9     4    35    1
    10     5     6   ar
    11     5    36    1
    12     6     7    1
    13     6    29   ar
    14     7     8    2
    15     7     9    1
    16     9    10    1
    17     9    37    1
    18     9    38    1
    19    10    11    1
    20    10    39    1
    21    10    40    1
    22    11    12    2
    23    11    13   am
    24    13    14    1
    25    13    41    1
    26    14    15    1
    27    14    16    1
    28    14    23    1
    29    16    22   ar
    30    16    17   ar
    31    17    18   ar
    32    17    42    1
    33    18    19   ar
    34    18    43    1
    35    19    20    1
    36    19    21   ar
    37    21    22   ar
    38    21    44    1
    39    22    45    1
    40    23    24    1
    41    23    28    1
    42    23    25    1
    43    25    26    1
    44    25    46    1
    45    25    47    1
    46    26    27    1
    47    26    48    1
    48    26    49    1
    49    27    28    1
    50    27    50    1
    51    27    51    1
    52    29    30    1
    53    29    31   ar
    54    31    52    1
@<TRIPOS>SUBSTRUCTURE
     1 ZINC000505965769        1 TEMP              0 ****  ****    0 ROOT


##########                                Name:    ZINC000523878927
##########                DOCK_Rotatable_Bonds:                   8
##########                         Heavy_Atoms:                  27
##########                    Molecular_Weight:             376.474
##########                DOCK_Rotatable_Bonds:                   8
##########                       Formal_Charge:          0.00999957
##########                     HBond_Acceptors:                   7
##########                        HBond_Donors:                   3
##########                         Heavy_Atoms:                  27
##########                          Grid_Score:          -34.346775
##########                     Grid_vdw_energy:          -34.870411
##########                      Grid_es_energy:            0.523636
##########           Internal_energy_repulsive:           10.152371

@<TRIPOS>MOLECULE
ZINC000523878927
 56 58 1 0 0
SMALL
USER_CHARGES


@<TRIPOS>ATOM
      1 C1        -11.0009    2.3811   52.3264 C.3     1  ZINC000523878927   -0.1500
      2 C2        -11.3127    1.0401   51.6589 C.3     1  ZINC000523878927   -0.0900
      3 H3        -11.6512    1.2127   50.6374 H       1  ZINC000523878927    0.0700
      4 C4        -12.4110    0.3220   52.4457 C.3     1  ZINC000523878927   -0.1200
      5 C5        -11.9358    0.0797   53.8797 C.3     1  ZINC000523878927   -0.1200
      6 C6        -10.6741   -0.7855   53.8596 C.3     1  ZINC000523878927   -0.1100
      7 C7         -9.5758   -0.0674   53.0728 C.3     1  ZINC000523878927   -0.1000
      8 H8         -9.3537    0.8879   53.5483 H       1  ZINC000523878927    0.0800
      9 C9         -8.3142   -0.9327   53.0526 C.3     1  ZINC000523878927    0.1400
     10 N10        -7.2443   -0.2198   52.3500 N.am    1  ZINC000523878927   -0.7400
     11 C11        -6.7194    0.9017   52.8820 C.2     1  ZINC000523878927    0.7200
     12 O12        -7.1346    1.3226   53.9444 O.2     1  ZINC000523878927   -0.5800
     13 N13        -5.7342    1.5566   52.2363 N.am    1  ZINC000523878927   -0.6400
     14 C14        -5.0728    2.7891   52.7019 C.3     1  ZINC000523878927    0.1000
     15 C15        -3.6875    2.7820   52.0088 C.3     1  ZINC000523878927   -0.1400
     16 C16        -4.0375    2.1868   50.6193 C.3     1  ZINC000523878927    0.1500
     17 H17        -4.4190    2.9606   49.9533 H       1  ZINC000523878927    0.1100
     18 N18        -2.8701    1.5270   50.0292 N.am    1  ZINC000523878927   -0.7300
     19 C19        -2.7832    1.3804   48.6922 C.2     1  ZINC000523878927    0.7100
     20 O20        -3.6728    1.7972   47.9757 O.2     1  ZINC000523878927   -0.5700
     21 N21        -1.7100    0.7720   48.1494 N.am    1  ZINC000523878927   -0.6800
     22 C22        -1.6197    0.6196   46.7600 C.ar    1  ZINC000523878927    0.1500
     23 C23        -1.2643    1.7002   45.9639 C.ar    1  ZINC000523878927   -0.1200
     24 C24        -1.1753    1.5479   44.5941 C.ar    1  ZINC000523878927   -0.1300
     25 C25        -1.4407    0.3186   44.0146 C.ar    1  ZINC000523878927    0.0800
     26 F26        -1.3535    0.1717   42.6745 F       1  ZINC000523878927   -0.1400
     27 C27        -1.7948   -0.7604   44.8069 C.ar    1  ZINC000523878927   -0.1300
     28 C28        -1.8797   -0.6135   46.1776 C.ar    1  ZINC000523878927   -0.0900
     29 C29        -5.1366    1.1566   50.9539 C.3     1  ZINC000523878927    0.1200
     30 C30       -10.0510    0.1749   51.6388 C.3     1  ZINC000523878927   -0.1100
     31 H31       -10.2185    2.8927   51.7659 H       1  ZINC000523878927    0.0500
     32 H32       -11.8997    2.9975   52.3408 H       1  ZINC000523878927    0.0500
     33 H33       -10.6624    2.2085   53.3479 H       1  ZINC000523878927    0.0600
     34 H34       -13.3099    0.9384   52.4601 H       1  ZINC000523878927    0.0600
     35 H35       -12.6331   -0.6333   51.9702 H       1  ZINC000523878927    0.0600
     36 H36       -11.7137    1.0350   54.3551 H       1  ZINC000523878927    0.0700
     37 H37       -12.7183   -0.4319   54.4401 H       1  ZINC000523878927    0.0600
     38 H38       -10.3356   -0.9582   54.8812 H       1  ZINC000523878927    0.0600
     39 H39       -10.8963   -1.7409   53.3840 H       1  ZINC000523878927    0.0600
     40 H40        -8.0006   -1.1420   54.0752 H       1  ZINC000523878927    0.0700
     41 H41        -8.5248   -1.8703   52.5380 H       1  ZINC000523878927    0.0700
     42 H42        -6.9139   -0.5550   51.5018 H       1  ZINC000523878927    0.3900
     43 H43        -5.6452    3.6652   52.3970 H       1  ZINC000523878927    0.0800
     44 H44        -4.9550    2.7703   53.7854 H       1  ZINC000523878927    0.0800
     45 H45        -3.2937    3.7939   51.9123 H       1  ZINC000523878927    0.1000
     46 H46        -2.9865    2.1410   52.5431 H       1  ZINC000523878927    0.0800
     47 H47        -2.1599    1.1956   50.6006 H       1  ZINC000523878927    0.4000
     48 H48        -1.0003    0.4396   48.7210 H       1  ZINC000523878927    0.4100
     49 H49        -1.0580    2.6594   46.4156 H       1  ZINC000523878927    0.1400
     50 H50        -0.8990    2.3882   43.9745 H       1  ZINC000523878927    0.1400
     51 H51        -2.0013   -1.7185   44.3530 H       1  ZINC000523878927    0.1400
     52 H52        -2.1556   -1.4554   46.7952 H       1  ZINC000523878927    0.1500
     53 H53        -4.6991    0.1617   51.0374 H       1  ZINC000523878927    0.0700
     54 H54        -5.9005    1.1638   50.1764 H       1  ZINC000523878927    0.0800
     55 H55       -10.2731   -0.7805   51.1633 H       1  ZINC000523878927    0.0700
     56 H56        -9.2685    0.6865   51.0782 H       1  ZINC000523878927    0.0700
@<TRIPOS>BOND
     1     1     2    1
     2     1    31    1
     3     1    32    1
     4     1    33    1
     5     2     3    1
     6     2    30    1
     7     2     4    1
     8     4     5    1
     9     4    34    1
    10     4    35    1
    11     5     6    1
    12     5    36    1
    13     5    37    1
    14     6     7    1
    15     6    38    1
    16     6    39    1
    17     7     8    1
    18     7     9    1
    19     7    30    1
    20     9    10    1
    21     9    40    1
    22     9    41    1
    23    10    11   am
    24    10    42    1
    25    11    12    2
    26    11    13   am
    27    13    29    1
    28    13    14    1
    29    14    15    1
    30    14    43    1
    31    14    44    1
    32    15    16    1
    33    15    45    1
    34    15    46    1
    35    16    17    1
    36    16    18    1
    37    16    29    1
    38    18    19   am
    39    18    47    1
    40    19    20    2
    41    19    21   am
    42    21    22    1
    43    21    48    1
    44    22    28   ar
    45    22    23   ar
    46    23    24   ar
    47    23    49    1
    48    24    25   ar
    49    24    50    1
    50    25    26    1
    51    25    27   ar
    52    27    28   ar
    53    27    51    1
    54    28    52    1
    55    29    53    1
    56    29    54    1
    57    30    55    1
    58    30    56    1
@<TRIPOS>SUBSTRUCTURE
     1 ZINC000523878927        1 TEMP              0 ****  ****    0 ROOT


##########                                Name:    ZINC001328997126
##########                DOCK_Rotatable_Bonds:                   7
##########                         Heavy_Atoms:                  26
##########                    Molecular_Weight:             388.488
##########                DOCK_Rotatable_Bonds:                   7
##########                       Formal_Charge:           0.0299993
##########                     HBond_Acceptors:                  10
##########                        HBond_Donors:                   1
##########                         Heavy_Atoms:                  26
##########                          Grid_Score:          -34.323387
##########                     Grid_vdw_energy:          -31.644066
##########                      Grid_es_energy:           -2.679320
##########           Internal_energy_repulsive:            9.133912

@<TRIPOS>MOLECULE
ZINC001328997126
 54 56 1 0 0
SMALL
USER_CHARGES


@<TRIPOS>ATOM
      1 C1        -15.2818   -1.2613   54.7380 C.3     1  ZINC001328997126   -0.1700
      2 C2        -15.7109   -2.6960   55.0519 C.3     1  ZINC001328997126    0.1400
      3 N3        -14.7368   -3.3098   55.9577 N.am    1  ZINC001328997126   -0.6300
      4 C4        -13.9430   -2.5971   56.9705 C.3     1  ZINC001328997126    0.0700
      5 C5        -13.0994   -3.7086   57.6243 C.3     1  ZINC001328997126    0.0700
      6 H6        -13.3319   -3.7902   58.6861 H       1  ZINC001328997126    0.1200
      7 C7        -11.6070   -3.4382   57.4227 C.3     1  ZINC001328997126    0.0500
      8 N8        -11.2101   -2.2673   58.2160 N.3     1  ZINC001328997126   -0.5300
      9 C9         -9.9174   -1.7366   57.7613 C.3     1  ZINC001328997126    0.0500
     10 C10        -9.5786   -0.4742   58.5576 C.3     1  ZINC001328997126    0.0600
     11 N11        -9.5371   -0.7984   59.9904 N.3     1  ZINC001328997126   -0.5200
     12 C12        -9.1402    0.3725   60.7838 C.3     1  ZINC001328997126    0.0400
     13 C13        -8.4549   -0.0845   62.0457 C.2     1  ZINC001328997126    0.5200
     14 O14        -8.1568   -1.2518   62.1852 O.2     1  ZINC001328997126   -0.5100
     15 N15        -8.1734    0.8039   63.0193 N.am    1  ZINC001328997126   -0.7300
     16 C16        -7.5088    0.3593   64.2468 C.3     1  ZINC001328997126    0.1600
     17 H17        -6.6372   -0.2443   63.9935 H       1  ZINC001328997126    0.1100
     18 C18        -7.0692    1.5829   65.0696 C.3     1  ZINC001328997126   -0.1400
     19 C19        -6.6861    1.0569   66.4769 C.3     1  ZINC001328997126   -0.5800
     20 S20        -8.0216   -0.1479   66.8295 S.o2    1  ZINC001328997126    2.4000
     21 O21        -7.4584   -1.3223   67.3978 O.2     1  ZINC001328997126   -0.9300
     22 O22        -9.0915    0.5148   67.4894 O.2     1  ZINC001328997126   -0.9300
     23 C23        -8.4894   -0.4762   65.0937 C.3     1  ZINC001328997126   -0.6100
     24 C24       -10.8298   -1.3290   60.4451 C.3     1  ZINC001328997126    0.0500
     25 C25       -11.1686   -2.5914   59.6488 C.3     1  ZINC001328997126    0.0600
     26 O26       -13.5020   -4.9182   56.9188 O.3     1  ZINC001328997126   -0.3100
     27 C27       -14.4277   -4.6129   56.0026 C.2     1  ZINC001328997126    0.6400
     28 O28       -14.9358   -5.4404   55.2723 O.2     1  ZINC001328997126   -0.5200
     29 H29       -15.2327   -0.6861   55.6626 H       1  ZINC001328997126    0.0600
     30 H30       -14.3005   -1.2711   54.2636 H       1  ZINC001328997126    0.0600
     31 H31       -16.0066   -0.8045   54.0640 H       1  ZINC001328997126    0.0700
     32 H32       -16.6922   -2.6861   55.5263 H       1  ZINC001328997126    0.0900
     33 H33       -15.7600   -3.2711   54.1273 H       1  ZINC001328997126    0.0900
     34 H34       -13.2989   -1.8547   56.4993 H       1  ZINC001328997126    0.0900
     35 H35       -14.5949   -2.1277   57.7072 H       1  ZINC001328997126    0.0900
     36 H36       -11.0336   -4.3071   57.7453 H       1  ZINC001328997126    0.0900
     37 H37       -11.4120   -3.2453   56.3678 H       1  ZINC001328997126    0.0600
     38 H38        -9.1412   -2.4854   57.9192 H       1  ZINC001328997126    0.0500
     39 H39        -9.9772   -1.4925   56.7007 H       1  ZINC001328997126    0.0900
     40 H40        -8.6065   -0.0953   58.2421 H       1  ZINC001328997126    0.0800
     41 H41       -10.3406    0.2842   58.3783 H       1  ZINC001328997126    0.0500
     42 H42        -8.4561    0.9905   60.2022 H       1  ZINC001328997126    0.1100
     43 H43       -10.0256    0.9540   61.0412 H       1  ZINC001328997126    0.0700
     44 H44        -8.4109    1.7377   62.9073 H       1  ZINC001328997126    0.4100
     45 H45        -6.2071    2.0577   64.6012 H       1  ZINC001328997126    0.1100
     46 H46        -7.8911    2.2947   65.1482 H       1  ZINC001328997126    0.0900
     47 H47        -5.7150    0.5623   66.4539 H       1  ZINC001328997126    0.1400
     48 H48        -6.6921    1.8660   67.2073 H       1  ZINC001328997126    0.1400
     49 H49        -9.5157   -0.1573   64.9115 H       1  ZINC001328997126    0.1400
     50 H50        -8.3750   -1.5357   64.8648 H       1  ZINC001328997126    0.1500
     51 H51       -10.7699   -1.5732   61.5057 H       1  ZINC001328997126    0.1000
     52 H52       -11.6060   -0.5802   60.2873 H       1  ZINC001328997126    0.0400
     53 H53       -12.1407   -2.9704   59.9642 H       1  ZINC001328997126    0.0800
     54 H54       -10.4065   -3.3499   59.8281 H       1  ZINC001328997126    0.0500
@<TRIPOS>BOND
     1     1     2    1
     2     1    29    1
     3     1    30    1
     4     1    31    1
     5     2     3    1
     6     2    32    1
     7     2    33    1
     8     3    27   am
     9     3     4    1
    10     4     5    1
    11     4    34    1
    12     4    35    1
    13     5     6    1
    14     5     7    1
    15     5    26    1
    16     7     8    1
    17     7    36    1
    18     7    37    1
    19     8    25    1
    20     8     9    1
    21     9    10    1
    22     9    38    1
    23     9    39    1
    24    10    11    1
    25    10    40    1
    26    10    41    1
    27    11    12    1
    28    11    24    1
    29    12    13    1
    30    12    42    1
    31    12    43    1
    32    13    14    2
    33    13    15   am
    34    15    16    1
    35    15    44    1
    36    16    17    1
    37    16    23    1
    38    16    18    1
    39    18    19    1
    40    18    45    1
    41    18    46    1
    42    19    20    1
    43    19    47    1
    44    19    48    1
    45    20    21    2
    46    20    22    2
    47    20    23    1
    48    23    49    1
    49    23    50    1
    50    24    25    1
    51    24    51    1
    52    24    52    1
    53    25    53    1
    54    25    54    1
    55    26    27    1
    56    27    28    2
@<TRIPOS>SUBSTRUCTURE
     1 ZINC001328997126        1 TEMP              0 ****  ****    0 ROOT


##########                                Name:    ZINC000919225759
##########                DOCK_Rotatable_Bonds:                   4
##########                         Heavy_Atoms:                  27
##########                    Molecular_Weight:             375.295
##########                DOCK_Rotatable_Bonds:                   4
##########                       Formal_Charge:                0.04
##########                     HBond_Acceptors:                  11
##########                        HBond_Donors:                   0
##########                         Heavy_Atoms:                  27
##########                          Grid_Score:          -34.157932
##########                     Grid_vdw_energy:          -33.543449
##########                      Grid_es_energy:           -0.614484
##########           Internal_energy_repulsive:            9.401601

@<TRIPOS>MOLECULE
ZINC000919225759
 40 41 1 0 0
SMALL
USER_CHARGES


@<TRIPOS>ATOM
      1 C1         -3.7596    4.5424   52.2202 C.3     1  ZINC000919225759   -0.1500
      2 C2         -4.4946    3.2281   52.1584 C.ar    1  ZINC000919225759    0.0900
      3 C3         -4.1049    2.2510   51.2405 C.ar    1  ZINC000919225759   -0.1200
      4 C4         -2.9713    2.5013   50.3269 C.2     1  ZINC000919225759    0.5200
      5 O5         -3.1500    3.1063   49.2889 O.2     1  ZINC000919225759   -0.4700
      6 O6         -1.7394    2.0585   50.6451 O.3     1  ZINC000919225759   -0.3400
      7 C7         -0.7215    2.1435   49.6131 C.3     1  ZINC000919225759    0.1400
      8 H8         -0.8130    3.0956   49.0900 H       1  ZINC000919225759    0.1100
      9 C9          0.6642    2.0451   50.2542 C.3     1  ZINC000919225759   -0.1700
     10 C10        -0.9034    1.0128   48.6337 C.ar    1  ZINC000919225759   -0.1000
     11 C11        -0.5422   -0.2734   48.9883 C.ar    1  ZINC000919225759   -0.0400
     12 C12        -0.7090   -1.3108   48.0898 C.ar    1  ZINC000919225759   -0.1100
     13 C13        -1.2374   -1.0619   46.8371 C.ar    1  ZINC000919225759   -0.0500
     14 C14        -1.5996    0.2245   46.4828 C.ar    1  ZINC000919225759   -0.0400
     15 N15        -2.1648    0.4911   45.1411 N.pl3   1  ZINC000919225759    0.0300
     16 O16        -2.3111   -0.4227   44.3492 O.2     1  ZINC000919225759   -0.1500
     17 O17        -2.4839    1.6244   44.8288 O.2     1  ZINC000919225759   -0.1500
     18 C18        -1.4367    1.2609   47.3826 C.ar    1  ZINC000919225759   -0.0400
     19 C19        -4.7911    1.0358   51.1904 C.ar    1  ZINC000919225759    0.0500
     20 C20        -5.8482    0.8086   52.0466 C.ar    1  ZINC000919225759   -0.0600
     21 N21        -6.5765   -0.4790   51.9952 N.pl3   1  ZINC000919225759    0.0300
     22 O22        -6.2421   -1.3364   51.1974 O.2     1  ZINC000919225759   -0.1300
     23 O23        -7.5103   -0.6811   52.7506 O.2     1  ZINC000919225759   -0.1300
     24 C24        -6.2293    1.7815   52.9540 C.ar    1  ZINC000919225759    0.0400
     25 C25        -5.5504    2.9856   53.0126 C.ar    1  ZINC000919225759   -0.0500
     26 N26        -5.9648    4.0201   53.9868 N.pl3   1  ZINC000919225759    0.0200
     27 O27        -7.1464    4.1913   54.2279 O.2     1  ZINC000919225759   -0.1300
     28 O28        -5.1241    4.7003   54.5473 O.2     1  ZINC000919225759   -0.1200
     29 H29        -2.8674    4.4309   52.8363 H       1  ZINC000919225759    0.1200
     30 H30        -3.4707    4.8447   51.2136 H       1  ZINC000919225759    0.1200
     31 H31        -4.4093    5.3017   52.6553 H       1  ZINC000919225759    0.0900
     32 H32         0.7557    1.0932   50.7772 H       1  ZINC000919225759    0.0700
     33 H33         1.4284    2.1089   49.4795 H       1  ZINC000919225759    0.0900
     34 H34         0.7958    2.8630   50.9626 H       1  ZINC000919225759    0.0700
     35 H35        -0.1294   -0.4678   49.9671 H       1  ZINC000919225759    0.1500
     36 H36        -0.4262   -2.3157   48.3666 H       1  ZINC000919225759    0.1500
     37 H37        -1.3671   -1.8722   46.1350 H       1  ZINC000919225759    0.1600
     38 H38        -1.7196    2.2658   47.1058 H       1  ZINC000919225759    0.1600
     39 H39        -4.4950    0.2758   50.4825 H       1  ZINC000919225759    0.1900
     40 H40        -7.0580    1.5985   53.6220 H       1  ZINC000919225759    0.1900
@<TRIPOS>BOND
     1     1     2    1
     2     1    29    1
     3     1    30    1
     4     1    31    1
     5     2    25   ar
     6     2     3   ar
     7     3     4    1
     8     3    19   ar
     9     4     5    2
    10     4     6    1
    11     6     7    1
    12     7     8    1
    13     7     9    1
    14     7    10    1
    15     9    32    1
    16     9    33    1
    17     9    34    1
    18    10    18   ar
    19    10    11   ar
    20    11    12   ar
    21    11    35    1
    22    12    13   ar
    23    12    36    1
    24    13    14   ar
    25    13    37    1
    26    14    15    1
    27    14    18   ar
    28    15    16    2
    29    15    17    2
    30    18    38    1
    31    19    20   ar
    32    19    39    1
    33    20    21    1
    34    20    24   ar
    35    21    22    2
    36    21    23    2
    37    24    25   ar
    38    24    40    1
    39    25    26    1
    40    26    27    2
    41    26    28    2
@<TRIPOS>SUBSTRUCTURE
     1 ZINC000919225759        1 TEMP              0 ****  ****    0 ROOT


##########                                Name:    ZINC000432253027
##########                DOCK_Rotatable_Bonds:                   8
##########                         Heavy_Atoms:                  26
##########                    Molecular_Weight:             401.436
##########                DOCK_Rotatable_Bonds:                   8
##########                       Formal_Charge:         1.19209e-07
##########                     HBond_Acceptors:                  11
##########                        HBond_Donors:                   0
##########                         Heavy_Atoms:                  26
##########                          Grid_Score:          -34.142818
##########                     Grid_vdw_energy:          -33.263618
##########                      Grid_es_energy:           -0.879202
##########           Internal_energy_repulsive:            4.525172

@<TRIPOS>MOLECULE
ZINC000432253027
 40 42 1 0 0
SMALL
USER_CHARGES


@<TRIPOS>ATOM
      1 C1         -1.9834    3.6939   45.5687 C.3     1  ZINC000432253027    0.0300
      2 O2         -2.8371    2.7245   46.1800 O.3     1  ZINC000432253027   -0.3100
      3 C3         -2.4171    1.4331   46.1602 C.ar    1  ZINC000432253027    0.1500
      4 C4         -2.2893    0.7619   44.9552 C.ar    1  ZINC000432253027   -0.2100
      5 C5         -1.8621   -0.5527   44.9362 C.ar    1  ZINC000432253027   -0.0600
      6 C6         -1.5592   -1.2066   46.1176 C.ar    1  ZINC000432253027   -0.1600
      7 C7         -1.6813   -0.5518   47.3259 C.ar    1  ZINC000432253027   -0.0300
      8 C8         -2.1059    0.7765   47.3575 C.ar    1  ZINC000432253027   -0.0600
      9 C9         -2.2388    1.4834   48.6484 C.2     1  ZINC000432253027    0.1200
     10 N10        -3.2834    1.4476   49.4257 N.2     1  ZINC000432253027   -0.4600
     11 C11        -3.2221    2.1410   50.5398 C.2     1  ZINC000432253027    0.0800
     12 C12        -4.3644    2.1798   51.5220 C.3     1  ZINC000432253027   -0.0200
     13 S13        -5.5537    0.8709   51.1185 S.3     1  ZINC000432253027   -0.1700
     14 C14        -6.7202    0.9373   52.5061 C.3     1  ZINC000432253027   -0.0300
     15 C15        -7.8805    0.0158   52.2315 C.2     1  ZINC000432253027    0.2100
     16 N16        -7.9453   -0.9054   51.3013 N.2     1  ZINC000432253027   -0.2700
     17 N17        -9.0959   -1.4784   51.3881 N.2     1  ZINC000432253027   -0.0500
     18 N18        -9.7670   -0.9468   52.3496 N.2     1  ZINC000432253027   -0.0700
     19 N19        -9.0494   -0.0250   52.8977 N.pl3   1  ZINC000432253027   -0.3100
     20 C20        -9.4377    0.8240   54.0266 C.3     1  ZINC000432253027    0.0700
     21 C21       -10.3038    1.9796   53.5214 C.3     1  ZINC000432253027    0.4300
     22 F22       -10.7179    2.7606   54.6057 F       1  ZINC000432253027   -0.1500
     23 F23        -9.5600    2.7675   52.6363 F       1  ZINC000432253027   -0.1700
     24 F24       -11.4253    1.4675   52.8602 F       1  ZINC000432253027   -0.1700
     25 C25        -2.0836    2.8094   50.7485 C.2     1  ZINC000432253027   -0.2500
     26 S26        -1.0071    2.5038   49.3869 S.3     1  ZINC000432253027    0.1600
     27 H27        -2.4358    4.6819   45.6542 H       1  ZINC000432253027    0.1000
     28 H28        -1.0154    3.6930   46.0699 H       1  ZINC000432253027    0.0600
     29 H29        -1.8477    3.4461   44.5160 H       1  ZINC000432253027    0.0600
     30 H30        -2.5240    1.2662   44.0295 H       1  ZINC000432253027    0.1400
     31 H31        -1.7646   -1.0723   43.9945 H       1  ZINC000432253027    0.1300
     32 H32        -1.2261   -2.2337   46.0937 H       1  ZINC000432253027    0.1300
     33 H33        -1.4443   -1.0657   48.2458 H       1  ZINC000432253027    0.1400
     34 H34        -3.9817    2.0246   52.5308 H       1  ZINC000432253027    0.1000
     35 H35        -4.8587    3.1497   51.4663 H       1  ZINC000432253027    0.1100
     36 H36        -6.2157    0.6239   53.4201 H       1  ZINC000432253027    0.1100
     37 H37        -7.0862    1.9571   52.6246 H       1  ZINC000432253027    0.1300
     38 H38       -10.0038    0.2337   54.7472 H       1  ZINC000432253027    0.1500
     39 H39        -8.5435    1.2226   54.5058 H       1  ZINC000432253027    0.1600
     40 H40        -1.8604    3.4273   51.6057 H       1  ZINC000432253027    0.1800
@<TRIPOS>BOND
     1     1     2    1
     2     1    27    1
     3     1    28    1
     4     1    29    1
     5     2     3    1
     6     3     8   ar
     7     3     4   ar
     8     4     5   ar
     9     4    30    1
    10     5     6   ar
    11     5    31    1
    12     6     7   ar
    13     6    32    1
    14     7     8   ar
    15     7    33    1
    16     8     9    1
    17     9    26    1
    18     9    10    2
    19    10    11    1
    20    11    12    1
    21    11    25    2
    22    12    13    1
    23    12    34    1
    24    12    35    1
    25    13    14    1
    26    14    15    1
    27    14    36    1
    28    14    37    1
    29    15    19    1
    30    15    16    2
    31    16    17    1
    32    17    18    2
    33    18    19    1
    34    19    20    1
    35    20    21    1
    36    20    38    1
    37    20    39    1
    38    21    22    1
    39    21    23    1
    40    21    24    1
    41    25    26    1
    42    25    40    1
@<TRIPOS>SUBSTRUCTURE
     1 ZINC000432253027        1 TEMP              0 ****  ****    0 ROOT


##########                                Name:    ZINC000428748914
##########                DOCK_Rotatable_Bonds:                  11
##########                         Heavy_Atoms:                  30
##########                    Molecular_Weight:             413.492
##########                DOCK_Rotatable_Bonds:                  11
##########                       Formal_Charge:           0.0199993
##########                     HBond_Acceptors:                   7
##########                        HBond_Donors:                   3
##########                         Heavy_Atoms:                  30
##########                          Grid_Score:          -34.104801
##########                     Grid_vdw_energy:          -34.217060
##########                      Grid_es_energy:            0.112258
##########           Internal_energy_repulsive:           23.348122

@<TRIPOS>MOLECULE
ZINC000428748914
 58 61 1 0 0
SMALL
USER_CHARGES


@<TRIPOS>ATOM
      1 O1         -4.0225    2.4122   48.7582 O.2     1  ZINC000428748914   -0.5900
      2 C2         -3.1767    1.7868   49.3682 C.2     1  ZINC000428748914    0.7000
      3 N3         -3.1801    1.7865   50.7159 N.am    1  ZINC000428748914   -0.7400
      4 C4         -4.1993    2.5445   51.4460 C.3     1  ZINC000428748914    0.1900
      5 C5         -5.2670    1.6031   51.9409 C.ar    1  ZINC000428748914   -0.2000
      6 C6         -6.0547    1.9467   53.0307 C.ar    1  ZINC000428748914   -0.0200
      7 C7         -7.0239    1.0530   53.4525 C.ar    1  ZINC000428748914   -0.1900
      8 C8         -7.1747   -0.1500   52.7751 C.ar    1  ZINC000428748914    0.3300
      9 O9         -8.1214   -1.0342   53.1785 O.3     1  ZINC000428748914   -0.3000
     10 C10        -8.9206   -0.6611   54.3028 C.3     1  ZINC000428748914    0.0800
     11 C11       -10.0226    0.3402   53.8762 C.3     1  ZINC000428748914   -0.1400
     12 C12       -11.0966    0.1559   54.9770 C.3     1  ZINC000428748914   -0.1200
     13 C13       -11.0858   -1.3594   55.2661 C.3     1  ZINC000428748914   -0.1200
     14 C14        -9.7022   -1.8788   54.8374 C.3     1  ZINC000428748914   -0.1200
     15 N15        -6.4043   -0.4417   51.7401 N.ar    1  ZINC000428748914   -0.5400
     16 C16        -5.4761    0.3920   51.3112 C.ar    1  ZINC000428748914    0.1600
     17 N17        -2.2392    1.0895   48.6965 N.am    1  ZINC000428748914   -0.7400
     18 C18        -2.2354    1.0898   47.2315 C.3     1  ZINC000428748914    0.1800
     19 C19        -0.8304    0.7578   46.7250 C.3     1  ZINC000428748914   -0.1300
     20 C20        -0.6132   -0.6910   46.2837 C.3     1  ZINC000428748914    0.1100
     21 O21        -0.9842   -1.5730   47.3451 O.3     1  ZINC000428748914   -0.5700
     22 C22         0.3468    1.4802   47.3832 C.3     1  ZINC000428748914   -0.1400
     23 C23        -0.0787    1.8493   45.9607 C.3     1  ZINC000428748914   -0.1000
     24 H24        -0.5851    2.8040   45.8186 H       1  ZINC000428748914    0.1200
     25 C25         0.8197    1.4155   44.8311 C.ar    1  ZINC000428748914   -0.0700
     26 C26         0.2767    0.8309   43.7021 C.ar    1  ZINC000428748914   -0.0900
     27 C27         1.0995    0.4328   42.6657 C.ar    1  ZINC000428748914   -0.1500
     28 C28         2.4683    0.6201   42.7581 C.ar    1  ZINC000428748914    0.1000
     29 F29         3.2736    0.2317   41.7453 F       1  ZINC000428748914   -0.1400
     30 C30         3.0110    1.2062   43.8891 C.ar    1  ZINC000428748914   -0.1500
     31 C31         2.1857    1.6078   44.9223 C.ar    1  ZINC000428748914   -0.0800
     32 H32        -2.5078    1.2844   51.2026 H       1  ZINC000428748914    0.4000
     33 H33        -3.7381    3.0492   52.2949 H       1  ZINC000428748914    0.0800
     34 H34        -4.6465    3.2846   50.7825 H       1  ZINC000428748914    0.0800
     35 H35        -5.9144    2.8895   53.5383 H       1  ZINC000428748914    0.1400
     36 H36        -7.6544    1.2879   54.2974 H       1  ZINC000428748914    0.1400
     37 H37        -8.2969   -0.2335   55.0879 H       1  ZINC000428748914    0.1000
     38 H38        -9.6391    1.3605   53.8777 H       1  ZINC000428748914    0.0700
     39 H39       -10.4242    0.0787   52.8972 H       1  ZINC000428748914    0.0800
     40 H40       -10.8262    0.7169   55.8715 H       1  ZINC000428748914    0.0700
     41 H41       -12.0750    0.4675   54.6113 H       1  ZINC000428748914    0.0700
     42 H42       -11.2381   -1.5375   56.3306 H       1  ZINC000428748914    0.0700
     43 H43       -11.8661   -1.8552   54.6887 H       1  ZINC000428748914    0.0700
     44 H44        -9.8111   -2.6268   54.0521 H       1  ZINC000428748914    0.0800
     45 H45        -9.1832   -2.3090   55.6940 H       1  ZINC000428748914    0.0700
     46 H46        -4.8660    0.1200   50.4626 H       1  ZINC000428748914    0.1600
     47 H47        -1.5668    0.5873   49.1831 H       1  ZINC000428748914    0.3900
     48 H48        -2.9395    0.3423   46.8662 H       1  ZINC000428748914    0.0700
     49 H49        -2.5296    2.0744   46.8677 H       1  ZINC000428748914    0.0900
     50 H50        -1.2263   -0.8995   45.4069 H       1  ZINC000428748914    0.0500
     51 H51         0.4375   -0.8419   46.0364 H       1  ZINC000428748914    0.0600
     52 H52        -1.9214   -1.5334   47.5800 H       1  ZINC000428748914    0.3800
     53 H53         0.1203    2.1920   48.1770 H       1  ZINC000428748914    0.1100
     54 H54         1.2763    0.9234   47.5021 H       1  ZINC000428748914    0.1100
     55 H55        -0.7910    0.6849   43.6304 H       1  ZINC000428748914    0.1400
     56 H56         0.6752   -0.0245   41.7842 H       1  ZINC000428748914    0.1400
     57 H57         4.0786    1.3524   43.9624 H       1  ZINC000428748914    0.1400
     58 H58         2.6088    2.0653   45.8044 H       1  ZINC000428748914    0.1300
@<TRIPOS>BOND
     1     1     2    2
     2     2     3   am
     3     2    17   am
     4     3     4    1
     5     3    32    1
     6     4     5    1
     7     4    33    1
     8     4    34    1
     9     5    16   ar
    10     5     6   ar
    11     6     7   ar
    12     6    35    1
    13     7     8   ar
    14     7    36    1
    15     8     9    1
    16     8    15   ar
    17     9    10    1
    18    10    14    1
    19    10    11    1
    20    10    37    1
    21    11    12    1
    22    11    38    1
    23    11    39    1
    24    12    13    1
    25    12    40    1
    26    12    41    1
    27    13    14    1
    28    13    42    1
    29    13    43    1
    30    14    44    1
    31    14    45    1
    32    15    16   ar
    33    16    46    1
    34    17    18    1
    35    17    47    1
    36    18    19    1
    37    18    48    1
    38    18    49    1
    39    19    23    1
    40    19    20    1
    41    19    22    1
    42    20    21    1
    43    20    50    1
    44    20    51    1
    45    21    52    1
    46    22    23    1
    47    22    53    1
    48    22    54    1
    49    23    24    1
    50    23    25    1
    51    25    31   ar
    52    25    26   ar
    53    26    27   ar
    54    26    55    1
    55    27    28   ar
    56    27    56    1
    57    28    29    1
    58    28    30   ar
    59    30    31   ar
    60    30    57    1
    61    31    58    1
@<TRIPOS>SUBSTRUCTURE
     1 ZINC000428748914        1 TEMP              0 ****  ****    0 ROOT


##########                                Name:    ZINC000058174787
##########                DOCK_Rotatable_Bonds:                   9
##########                         Heavy_Atoms:                  27
##########                    Molecular_Weight:             413.882
##########                DOCK_Rotatable_Bonds:                   9
##########                       Formal_Charge:           0.0200002
##########                     HBond_Acceptors:                  10
##########                        HBond_Donors:                   1
##########                         Heavy_Atoms:                  27
##########                          Grid_Score:          -34.077057
##########                     Grid_vdw_energy:          -34.323746
##########                      Grid_es_energy:            0.246688
##########           Internal_energy_repulsive:            5.419014

@<TRIPOS>MOLECULE
ZINC000058174787
 47 48 1 0 0
SMALL
USER_CHARGES


@<TRIPOS>ATOM
      1 C1         -7.9058    1.0166   57.1321 C.3     1  ZINC000058174787   -0.0700
      2 C2         -8.0576    0.4402   55.7479 C.2     1  ZINC000058174787    0.2100
      3 N3         -7.1737    0.5171   54.7910 N.2     1  ZINC000058174787   -0.4200
      4 C4         -7.6460   -0.1067   53.7015 C.2     1  ZINC000058174787   -0.5600
      5 S5         -6.8124   -0.2676   52.1575 S.o2    1  ZINC000058174787    2.7400
      6 O6         -5.8948   -1.3423   52.3070 O.2     1  ZINC000058174787   -0.9500
      7 O7         -7.8177   -0.2379   51.1538 O.2     1  ZINC000058174787   -0.9600
      8 N8         -5.9013    1.0993   51.9475 N.am    1  ZINC000058174787   -1.1100
      9 C9         -5.0863    1.2580   50.7406 C.3     1  ZINC000058174787    0.1300
     10 C10        -3.9570    2.2533   51.0152 C.3     1  ZINC000058174787   -0.1200
     11 C11        -3.1797    2.4935   49.7467 C.2     1  ZINC000058174787    0.4700
     12 O12        -3.6874    2.2644   48.6745 O.2     1  ZINC000058174787   -0.5000
     13 O13        -1.9233    2.9621   49.8080 O.3     1  ZINC000058174787   -0.3300
     14 C14        -0.8901    2.0269   50.2155 C.3     1  ZINC000058174787    0.0400
     15 H15        -1.3462    1.0709   50.4727 H       1  ZINC000058174787    0.1200
     16 C16        -0.1501    2.5832   51.4335 C.3     1  ZINC000058174787   -0.1700
     17 C17         0.0841    1.8298   49.0826 C.2     1  ZINC000058174787    0.4000
     18 O18         1.2743    1.9559   49.2776 O.2     1  ZINC000058174787   -0.4200
     19 C19        -0.4087    1.4845   47.7405 C.ar    1  ZINC000058174787   -0.1600
     20 C20        -0.4581    0.1471   47.3326 C.ar    1  ZINC000058174787   -0.0600
     21 C21        -0.9214   -0.1691   46.0737 C.ar    1  ZINC000058174787   -0.1200
     22 C22        -1.3378    0.8338   45.2129 C.ar    1  ZINC000058174787    0.0000
     23 Cl23       -1.9205    0.4261   43.6293 Cl      1  ZINC000058174787   -0.0500
     24 C24        -1.2916    2.1605   45.6102 C.ar    1  ZINC000058174787   -0.1200
     25 C25        -0.8356    2.4912   46.8679 C.ar    1  ZINC000058174787   -0.0400
     26 C26        -8.8689   -0.5884   53.9946 C.2     1  ZINC000058174787    0.0700
     27 N27        -9.1283   -0.2464   55.2943 N.pl3   1  ZINC000058174787   -0.4500
     28 C28       -10.3440   -0.5593   56.0496 C.3     1  ZINC000058174787    0.0600
     29 H29        -7.4411    0.2774   57.7846 H       1  ZINC000058174787    0.0900
     30 H30        -7.2791    1.9074   57.0881 H       1  ZINC000058174787    0.1000
     31 H31        -8.8874    1.2819   57.5249 H       1  ZINC000058174787    0.0800
     32 H32        -5.9074    1.7947   52.6237 H       1  ZINC000058174787    0.4200
     33 H33        -4.6610    0.2945   50.4600 H       1  ZINC000058174787    0.0900
     34 H34        -5.7094    1.6309   49.9277 H       1  ZINC000058174787    0.0900
     35 H35        -4.3797    3.1947   51.3661 H       1  ZINC000058174787    0.1200
     36 H36        -3.2920    1.8471   51.7774 H       1  ZINC000058174787    0.1200
     37 H37         0.3060    3.5391   51.1762 H       1  ZINC000058174787    0.0800
     38 H38        -0.8548    2.7256   52.2529 H       1  ZINC000058174787    0.0800
     39 H39         0.6255    1.8811   51.7394 H       1  ZINC000058174787    0.0800
     40 H40        -0.1335   -0.6354   48.0023 H       1  ZINC000058174787    0.1400
     41 H41        -0.9598   -1.2010   45.7573 H       1  ZINC000058174787    0.1400
     42 H42        -1.6178    2.9369   44.9340 H       1  ZINC000058174787    0.1400
     43 H43        -0.8005    3.5255   47.1764 H       1  ZINC000058174787    0.1500
     44 H44        -9.5184   -1.1419   53.3326 H       1  ZINC000058174787    0.1900
     45 H45       -10.2222   -1.5184   56.5530 H       1  ZINC000058174787    0.0900
     46 H46       -10.5220    0.2199   56.7906 H       1  ZINC000058174787    0.1000
     47 H47       -11.1922   -0.6122   55.3671 H       1  ZINC000058174787    0.0900
@<TRIPOS>BOND
     1     1     2    1
     2     1    29    1
     3     1    30    1
     4     1    31    1
     5     2    27    1
     6     2     3    2
     7     3     4    1
     8     4     5    1
     9     4    26    2
    10     5     6    2
    11     5     7    2
    12     5     8   am
    13     8     9    1
    14     8    32    1
    15     9    10    1
    16     9    33    1
    17     9    34    1
    18    10    11    1
    19    10    35    1
    20    10    36    1
    21    11    12    2
    22    11    13    1
    23    13    14    1
    24    14    15    1
    25    14    16    1
    26    14    17    1
    27    16    37    1
    28    16    38    1
    29    16    39    1
    30    17    18    2
    31    17    19    1
    32    19    25   ar
    33    19    20   ar
    34    20    21   ar
    35    20    40    1
    36    21    22   ar
    37    21    41    1
    38    22    23    1
    39    22    24   ar
    40    24    25   ar
    41    24    42    1
    42    25    43    1
    43    26    27    1
    44    26    44    1
    45    27    28    1
    46    28    45    1
    47    28    46    1
    48    28    47    1
@<TRIPOS>SUBSTRUCTURE
     1 ZINC000058174787        1 TEMP              0 ****  ****    0 ROOT


##########                                Name:    ZINC000020646552
##########                DOCK_Rotatable_Bonds:                   5
##########                         Heavy_Atoms:                  29
##########                    Molecular_Weight:             412.556
##########                DOCK_Rotatable_Bonds:                   5
##########                       Formal_Charge:          -0.0200012
##########                     HBond_Acceptors:                   7
##########                        HBond_Donors:                   0
##########                         Heavy_Atoms:                  29
##########                          Grid_Score:          -34.049107
##########                     Grid_vdw_energy:          -33.079094
##########                      Grid_es_energy:           -0.970011
##########           Internal_energy_repulsive:           14.786536

@<TRIPOS>MOLECULE
ZINC000020646552
 57 60 1 0 0
SMALL
USER_CHARGES


@<TRIPOS>ATOM
      1 C1         -6.7045    0.6494   52.1079 C.3     1  ZINC000020646552    0.0200
      2 N2         -7.9823    0.2903   52.7375 N.3     1  ZINC000020646552   -0.5400
      3 C3         -7.9499    0.5547   54.1821 C.3     1  ZINC000020646552    0.0400
      4 C4         -9.3493    0.3405   54.7687 C.3     1  ZINC000020646552    0.1200
      5 N5         -9.8128   -1.0038   54.3927 N.am    1  ZINC000020646552   -0.6100
      6 C6        -10.2864   -1.8573   55.3221 C.2     1  ZINC000020646552    0.5300
      7 O7        -10.6629   -2.9626   54.9945 O.2     1  ZINC000020646552   -0.5200
      8 C8        -10.3479   -1.4382   56.7683 C.3     1  ZINC000020646552   -0.1500
      9 S9        -10.3283   -2.9085   57.8239 S.3     1  ZINC000020646552    0.0500
     10 C10       -11.0360   -2.2402   59.2925 C.ar    1  ZINC000020646552    0.1500
     11 N11       -10.2609   -1.7251   60.2408 N.ar    1  ZINC000020646552   -0.5200
     12 C12       -10.7929   -1.2224   61.3462 C.ar    1  ZINC000020646552    0.3800
     13 C13        -9.8998   -0.6523   62.3841 C.ar    1  ZINC000020646552   -0.0500
     14 C14        -8.5658   -1.0498   62.4540 C.ar    1  ZINC000020646552   -0.0700
     15 C15        -7.7391   -0.5157   63.4215 C.ar    1  ZINC000020646552   -0.1300
     16 C16        -8.2324    0.4124   64.3208 C.ar    1  ZINC000020646552   -0.1000
     17 C17        -9.5557    0.8102   64.2565 C.ar    1  ZINC000020646552   -0.1300
     18 C18       -10.3900    0.2871   63.2896 C.ar    1  ZINC000020646552   -0.0700
     19 N19       -12.1027   -1.2160   61.5466 N.ar    1  ZINC000020646552   -0.5200
     20 C20       -12.9345   -1.7152   60.6411 C.ar    1  ZINC000020646552    0.2100
     21 C21       -12.4237   -2.2387   59.4755 C.ar    1  ZINC000020646552   -0.2100
     22 C22       -13.3139   -2.8079   58.4056 C.3     1  ZINC000020646552    0.1100
     23 O23       -14.6196   -3.0525   58.9299 O.3     1  ZINC000020646552   -0.3600
     24 C24       -15.1795   -1.9185   59.6017 C.3     1  ZINC000020646552    0.1100
     25 C25       -15.0446   -0.6784   58.7157 C.3     1  ZINC000020646552   -0.1800
     26 C26       -16.6573   -2.1772   59.9016 C.3     1  ZINC000020646552   -0.1400
     27 C27       -14.4166   -1.6954   60.9075 C.3     1  ZINC000020646552   -0.0900
     28 C28        -9.7461   -1.3918   52.9755 C.3     1  ZINC000020646552    0.1100
     29 C29        -8.3311   -1.1094   52.4596 C.3     1  ZINC000020646552    0.0400
     30 H30        -6.7809    0.5158   51.0289 H       1  ZINC000020646552    0.0700
     31 H31        -6.4702    1.6906   52.3295 H       1  ZINC000020646552    0.0700
     32 H32        -5.9142    0.0081   52.4983 H       1  ZINC000020646552    0.0300
     33 H33        -7.2467   -0.1266   54.6610 H       1  ZINC000020646552    0.0400
     34 H34        -7.6360    1.5839   54.3567 H       1  ZINC000020646552    0.0900
     35 H35        -9.3077    0.4230   55.8547 H       1  ZINC000020646552    0.1000
     36 H36       -10.0329    1.0889   54.3678 H       1  ZINC000020646552    0.0800
     37 H37        -9.4872   -0.8116   57.0020 H       1  ZINC000020646552    0.1300
     38 H38       -11.2651   -0.8763   56.9451 H       1  ZINC000020646552    0.1200
     39 H39        -8.1797   -1.7745   61.7525 H       1  ZINC000020646552    0.1400
     40 H40        -6.7053   -0.8232   63.4768 H       1  ZINC000020646552    0.1300
     41 H41        -7.5820    0.8277   65.0763 H       1  ZINC000020646552    0.1300
     42 H42        -9.9356    1.5348   64.9615 H       1  ZINC000020646552    0.1300
     43 H43       -11.4230    0.5983   63.2402 H       1  ZINC000020646552    0.1300
     44 H44       -13.3830   -2.1006   57.5791 H       1  ZINC000020646552    0.0800
     45 H45       -12.8893   -3.7439   58.0425 H       1  ZINC000020646552    0.1100
     46 H46       -15.5756   -0.8423   57.7781 H       1  ZINC000020646552    0.0700
     47 H47       -15.4714    0.1832   59.2292 H       1  ZINC000020646552    0.0700
     48 H48       -13.9906   -0.4926   58.5088 H       1  ZINC000020646552    0.0600
     49 H49       -16.7503   -3.0573   60.5380 H       1  ZINC000020646552    0.0700
     50 H50       -17.0810   -1.3128   60.4128 H       1  ZINC000020646552    0.0800
     51 H51       -17.1935   -2.3459   58.9677 H       1  ZINC000020646552    0.0700
     52 H52       -14.6632   -2.4899   61.6119 H       1  ZINC000020646552    0.1000
     53 H53       -14.7003   -0.7330   61.3334 H       1  ZINC000020646552    0.1000
     54 H54        -9.9667   -2.4545   52.8762 H       1  ZINC000020646552    0.0900
     55 H55       -10.4678   -0.8099   52.4023 H       1  ZINC000020646552    0.0800
     56 H56        -8.2936   -1.2871   51.3849 H       1  ZINC000020646552    0.0900
     57 H57        -7.6225   -1.7675   52.9625 H       1  ZINC000020646552    0.0400
@<TRIPOS>BOND
     1     1     2    1
     2     1    30    1
     3     1    31    1
     4     1    32    1
     5     2    29    1
     6     2     3    1
     7     3     4    1
     8     3    33    1
     9     3    34    1
    10     4     5    1
    11     4    35    1
    12     4    36    1
    13     5     6   am
    14     5    28    1
    15     6     7    2
    16     6     8    1
    17     8     9    1
    18     8    37    1
    19     8    38    1
    20     9    10    1
    21    10    21   ar
    22    10    11   ar
    23    11    12   ar
    24    12    13    1
    25    12    19   ar
    26    13    18   ar
    27    13    14   ar
    28    14    15   ar
    29    14    39    1
    30    15    16   ar
    31    15    40    1
    32    16    17   ar
    33    16    41    1
    34    17    18   ar
    35    17    42    1
    36    18    43    1
    37    19    20   ar
    38    20    27    1
    39    20    21   ar
    40    21    22    1
    41    22    23    1
    42    22    44    1
    43    22    45    1
    44    23    24    1
    45    24    25    1
    46    24    26    1
    47    24    27    1
    48    25    46    1
    49    25    47    1
    50    25    48    1
    51    26    49    1
    52    26    50    1
    53    26    51    1
    54    27    52    1
    55    27    53    1
    56    28    29    1
    57    28    54    1
    58    28    55    1
    59    29    56    1
    60    29    57    1
@<TRIPOS>SUBSTRUCTURE
     1 ZINC000020646552        1 TEMP              0 ****  ****    0 ROOT


##########                                Name:    ZINC000572148596
##########                DOCK_Rotatable_Bonds:                   4
##########                         Heavy_Atoms:                  26
##########                    Molecular_Weight:             371.463
##########                DOCK_Rotatable_Bonds:                   4
##########                       Formal_Charge:          -0.0199999
##########                     HBond_Acceptors:                   8
##########                        HBond_Donors:                   0
##########                         Heavy_Atoms:                  26
##########                          Grid_Score:          -34.044121
##########                     Grid_vdw_energy:          -33.500633
##########                      Grid_es_energy:           -0.543488
##########           Internal_energy_repulsive:            5.278472

@<TRIPOS>MOLECULE
ZINC000572148596
 47 50 1 0 0
SMALL
USER_CHARGES


@<TRIPOS>ATOM
      1 C1         -2.4599    1.7233   46.3530 C.3     1  ZINC000572148596   -0.1400
      2 C2         -1.7322    1.8264   47.6950 C.3     1  ZINC000572148596    0.0800
      3 H3         -0.9744    2.6078   47.6384 H       1  ZINC000572148596    0.1200
      4 C4         -2.7229    2.1651   48.7789 C.2     1  ZINC000572148596    0.1800
      5 N5         -3.0096    3.3575   49.2115 N.2     1  ZINC000572148596   -0.3500
      6 O6         -3.8456    3.3017   50.0884 O.3     1  ZINC000572148596    0.0900
      7 C7         -4.1858    2.0219   50.3083 C.2     1  ZINC000572148596    0.2300
      8 C8         -5.1691    1.5272   51.2919 C.ar    1  ZINC000572148596   -0.1200
      9 C9         -5.4296    0.1541   51.4082 C.ar    1  ZINC000572148596   -0.0100
     10 C10        -6.3498   -0.2601   52.3343 C.ar    1  ZINC000572148596   -0.1900
     11 C11        -6.9951    0.6861   53.1271 C.ar    1  ZINC000572148596    0.3400
     12 N12        -7.9268    0.2702   54.0658 N.3     1  ZINC000572148596   -0.4700
     13 C13        -9.2894    0.3281   53.5171 C.3     1  ZINC000572148596    0.0300
     14 C14       -10.2777   -0.1945   54.5632 C.3     1  ZINC000572148596    0.0900
     15 H15       -11.2947   -0.1003   54.1823 H       1  ZINC000572148596    0.1100
     16 C16        -9.9775   -1.6652   54.8599 C.3     1  ZINC000572148596   -0.1800
     17 O17       -10.1441    0.5724   55.7629 O.3     1  ZINC000572148596   -0.3700
     18 C18        -8.8294    0.5379   56.3250 C.3     1  ZINC000572148596    0.0800
     19 H19        -8.5730   -0.4883   56.5880 H       1  ZINC000572148596    0.0700
     20 C20        -8.7870    1.4127   57.5794 C.3     1  ZINC000572148596   -0.1400
     21 C21        -7.8266    1.0679   55.2967 C.3     1  ZINC000572148596    0.0300
     22 N22        -6.7304    1.9786   52.9970 N.ar    1  ZINC000572148596   -0.5200
     23 C23        -5.8486    2.4186   52.1232 C.ar    1  ZINC000572148596    0.1900
     24 N24        -3.4729    1.2914   49.4680 N.2     1  ZINC000572148596   -0.4700
     25 C25        -1.0724    0.5090   48.0112 C.2     1  ZINC000572148596    0.0400
     26 N26        -0.0578    0.3603   48.7944 N.2     1  ZINC000572148596   -0.4500
     27 C27         0.3967   -0.8651   48.9629 C.2     1  ZINC000572148596    0.0400
     28 C28        -0.2718   -1.8024   48.2840 C.2     1  ZINC000572148596   -0.2500
     29 S29        -1.5645   -1.0061   47.3900 S.3     1  ZINC000572148596    0.1400
     30 H30        -3.2176    0.9418   46.4097 H       1  ZINC000572148596    0.0800
     31 H31        -2.9370    2.6762   46.1244 H       1  ZINC000572148596    0.0700
     32 H32        -1.7433    1.4784   45.5691 H       1  ZINC000572148596    0.0800
     33 H33        -4.9165   -0.5604   50.7817 H       1  ZINC000572148596    0.1500
     34 H34        -6.5733   -1.3105   52.4484 H       1  ZINC000572148596    0.1500
     35 H35        -9.5371    1.3594   53.2657 H       1  ZINC000572148596    0.0600
     36 H36        -9.3475   -0.2898   52.6210 H       1  ZINC000572148596    0.1000
     37 H37        -8.9610   -1.7585   55.2421 H       1  ZINC000572148596    0.0700
     38 H38       -10.6813   -2.0366   55.6046 H       1  ZINC000572148596    0.0600
     39 H39       -10.0762   -2.2480   53.9440 H       1  ZINC000572148596    0.0700
     40 H40        -9.5038    1.0365   58.3092 H       1  ZINC000572148596    0.0700
     41 H41        -7.7848    1.3860   58.0073 H       1  ZINC000572148596    0.0700
     42 H42        -9.0421    2.4391   57.3154 H       1  ZINC000572148596    0.0600
     43 H43        -6.8168    0.9901   55.6996 H       1  ZINC000572148596    0.1000
     44 H44        -8.0509    2.1110   55.0737 H       1  ZINC000572148596    0.0600
     45 H45        -5.6567    3.4784   52.0428 H       1  ZINC000572148596    0.1700
     46 H46         1.2404   -1.0933   49.5973 H       1  ZINC000572148596    0.1800
     47 H47        -0.0595   -2.8613   48.2861 H       1  ZINC000572148596    0.1800
@<TRIPOS>BOND
     1     1     2    1
     2     1    30    1
     3     1    31    1
     4     1    32    1
     5     2     3    1
     6     2     4    1
     7     2    25    1
     8     4    24    1
     9     4     5    2
    10     5     6    1
    11     6     7    1
    12     7     8    1
    13     7    24    2
    14     8    23   ar
    15     8     9   ar
    16     9    10   ar
    17     9    33    1
    18    10    11   ar
    19    10    34    1
    20    11    12    1
    21    11    22   ar
    22    12    21    1
    23    12    13    1
    24    13    14    1
    25    13    35    1
    26    13    36    1
    27    14    15    1
    28    14    16    1
    29    14    17    1
    30    16    37    1
    31    16    38    1
    32    16    39    1
    33    17    18    1
    34    18    19    1
    35    18    20    1
    36    18    21    1
    37    20    40    1
    38    20    41    1
    39    20    42    1
    40    21    43    1
    41    21    44    1
    42    22    23   ar
    43    23    45    1
    44    25    29    1
    45    25    26    2
    46    26    27    1
    47    27    28    2
    48    27    46    1
    49    28    29    1
    50    28    47    1
@<TRIPOS>SUBSTRUCTURE
     1 ZINC000572148596        1 TEMP              0 ****  ****    0 ROOT


##########                                Name:    ZINC000033150761
##########                DOCK_Rotatable_Bonds:                   7
##########                         Heavy_Atoms:                  29
##########                    Molecular_Weight:             413.407
##########                DOCK_Rotatable_Bonds:                   7
##########                       Formal_Charge:          0.00999993
##########                     HBond_Acceptors:                  10
##########                        HBond_Donors:                   1
##########                         Heavy_Atoms:                  29
##########                          Grid_Score:          -33.960854
##########                     Grid_vdw_energy:          -33.510445
##########                      Grid_es_energy:           -0.450409
##########           Internal_energy_repulsive:            5.585477

@<TRIPOS>MOLECULE
ZINC000033150761
 42 45 1 0 0
SMALL
USER_CHARGES


@<TRIPOS>ATOM
      1 O1         -5.4079   -0.4424   51.6047 O.2     1  ZINC000033150761   -0.5000
      2 C2         -5.9622    0.5091   52.1130 C.2     1  ZINC000033150761    0.5200
      3 C3         -7.2778    0.3231   52.8242 C.3     1  ZINC000033150761   -0.1300
      4 C4         -7.9796   -0.9232   52.2809 C.3     1  ZINC000033150761   -0.0100
      5 C5         -9.3573   -1.0265   52.8827 C.2     1  ZINC000033150761    0.1800
      6 N6         -9.6624   -1.5548   54.0416 N.2     1  ZINC000033150761   -0.4400
      7 C7        -11.0031   -1.4243   54.1585 C.2     1  ZINC000033150761    0.2200
      8 C8        -11.8356   -1.8714   55.3038 C.ar    1  ZINC000033150761    0.1900
      9 C9        -13.2069   -1.6316   55.2954 C.ar    1  ZINC000033150761   -0.1300
     10 C10       -13.9707   -2.0545   56.3707 C.ar    1  ZINC000033150761   -0.0700
     11 C11       -13.3357   -2.7035   57.4189 C.ar    1  ZINC000033150761   -0.1500
     12 C12       -11.9685   -2.9085   57.3610 C.ar    1  ZINC000033150761    0.1100
     13 N13       -11.2672   -2.5007   56.3237 N.ar    1  ZINC000033150761   -0.4500
     14 N14       -11.4292   -0.8304   53.0747 N.2     1  ZINC000033150761   -0.3600
     15 O15       -10.4970   -0.5909   52.3366 O.3     1  ZINC000033150761    0.0900
     16 N16        -5.3990    1.7317   52.0468 N.am    1  ZINC000033150761   -0.6200
     17 C17        -4.1860    1.9032   51.3910 C.2     1  ZINC000033150761    0.2700
     18 N18        -3.9027    1.4516   50.2090 N.2     1  ZINC000033150761   -0.5000
     19 C19        -2.6906    1.7119   49.7398 C.2     1  ZINC000033150761    0.1200
     20 C20        -2.2426    1.2525   48.4024 C.ar    1  ZINC000033150761    0.0000
     21 C21        -3.0187    1.5191   47.2760 C.ar    1  ZINC000033150761   -0.0800
     22 C22        -2.5987    1.0906   46.0329 C.ar    1  ZINC000033150761   -0.1200
     23 C23        -1.4079    0.3964   45.9028 C.ar    1  ZINC000033150761    0.0700
     24 F24        -1.0011   -0.0209   44.6840 F       1  ZINC000033150761   -0.1300
     25 C25        -0.6308    0.1285   47.0210 C.ar    1  ZINC000033150761    0.0700
     26 F26         0.5308   -0.5487   46.8891 F       1  ZINC000033150761   -0.1300
     27 C27        -1.0414    0.5581   48.2681 C.ar    1  ZINC000033150761   -0.1000
     28 C28        -1.8950    2.4215   50.5599 C.2     1  ZINC000033150761   -0.2800
     29 S29        -2.7962    2.7739   52.0326 S.3     1  ZINC000033150761    0.2200
     30 H30        -7.0994    0.2028   53.8928 H       1  ZINC000033150761    0.1200
     31 H31        -7.9079    1.1967   52.6572 H       1  ZINC000033150761    0.1200
     32 H32        -8.0613   -0.8504   51.1964 H       1  ZINC000033150761    0.1300
     33 H33        -7.4012   -1.8091   52.5429 H       1  ZINC000033150761    0.1200
     34 H34       -13.6686   -1.1227   54.4622 H       1  ZINC000033150761    0.1400
     35 H35       -15.0367   -1.8823   56.3925 H       1  ZINC000033150761    0.1500
     36 H36       -13.9027   -3.0454   58.2722 H       1  ZINC000033150761    0.1400
     37 H37       -11.4705   -3.4135   58.1754 H       1  ZINC000033150761    0.1700
     38 H38        -5.8405    2.4919   52.4568 H       1  ZINC000033150761    0.4300
     39 H39        -3.9480    2.0600   47.3758 H       1  ZINC000033150761    0.1400
     40 H40        -3.2004    1.2969   45.1601 H       1  ZINC000033150761    0.1500
     41 H41        -0.4367    0.3498   49.1384 H       1  ZINC000033150761    0.1600
     42 H42        -0.8805    2.7266   50.3500 H       1  ZINC000033150761    0.1800
@<TRIPOS>BOND
     1     1     2    2
     2     2     3    1
     3     2    16   am
     4     3     4    1
     5     3    30    1
     6     3    31    1
     7     4     5    1
     8     4    32    1
     9     4    33    1
    10     5    15    1
    11     5     6    2
    12     6     7    1
    13     7     8    1
    14     7    14    2
    15     8    13   ar
    16     8     9   ar
    17     9    10   ar
    18     9    34    1
    19    10    11   ar
    20    10    35    1
    21    11    12   ar
    22    11    36    1
    23    12    13   ar
    24    12    37    1
    25    14    15    1
    26    16    17    1
    27    16    38    1
    28    17    29    1
    29    17    18    2
    30    18    19    1
    31    19    20    1
    32    19    28    2
    33    20    27   ar
    34    20    21   ar
    35    21    22   ar
    36    21    39    1
    37    22    23   ar
    38    22    40    1
    39    23    24    1
    40    23    25   ar
    41    25    26    1
    42    25    27   ar
    43    27    41    1
    44    28    29    1
    45    28    42    1
@<TRIPOS>SUBSTRUCTURE
     1 ZINC000033150761        1 TEMP              0 ****  ****    0 ROOT


##########                                Name:    ZINC000637608314
##########                DOCK_Rotatable_Bonds:                   9
##########                         Heavy_Atoms:                  28
##########                    Molecular_Weight:             387.479
##########                DOCK_Rotatable_Bonds:                   9
##########                       Formal_Charge:           0.0499991
##########                     HBond_Acceptors:                   7
##########                        HBond_Donors:                   2
##########                         Heavy_Atoms:                  28
##########                          Grid_Score:          -33.913593
##########                     Grid_vdw_energy:          -33.245762
##########                      Grid_es_energy:           -0.667833
##########           Internal_energy_repulsive:           19.637066

@<TRIPOS>MOLECULE
ZINC000637608314
 57 59 1 0 0
SMALL
USER_CHARGES


@<TRIPOS>ATOM
      1 C1          1.5570    0.9268   47.5953 C.3     1  ZINC000637608314   -0.1400
      2 C2          0.2949    0.0671   47.6909 C.3     1  ZINC000637608314   -0.0400
      3 C3         -0.2652   -0.1744   46.2878 C.3     1  ZINC000637608314   -0.1500
      4 C4          0.6398   -1.2746   48.3403 C.3     1  ZINC000637608314   -0.1500
      5 C5         -0.7361    0.7799   48.5276 C.2     1  ZINC000637608314    0.1900
      6 C6         -0.4805    1.0338   49.8323 C.2     1  ZINC000637608314   -0.2400
      7 C7         -1.4352    1.6965   50.6164 C.2     1  ZINC000637608314    0.0200
      8 C8         -2.6154    2.0782   50.0491 C.2     1  ZINC000637608314   -0.2400
      9 C9         -3.6585    2.7925   50.8693 C.3     1  ZINC000637608314    0.2100
     10 N10        -4.6342    1.8218   51.3712 N.am    1  ZINC000637608314   -0.7300
     11 C11        -5.4858    2.1699   52.3561 C.2     1  ZINC000637608314    0.7100
     12 O12        -5.4432    3.2891   52.8291 O.2     1  ZINC000637608314   -0.5900
     13 N13        -6.3844    1.2773   52.8168 N.am    1  ZINC000637608314   -0.6200
     14 C14        -6.4344   -0.0719   52.2481 C.3     1  ZINC000637608314    0.2000
     15 C15        -7.8571   -0.5688   52.2581 C.2     1  ZINC000637608314   -0.0400
     16 C16        -8.7378   -0.4535   51.2479 C.2     1  ZINC000637608314   -0.1900
     17 C17        -9.9421   -1.0521   51.6840 C.2     1  ZINC000637608314   -0.2200
     18 C18        -9.7254   -1.4975   52.9347 C.2     1  ZINC000637608314   -0.0300
     19 O19        -8.4590   -1.2071   53.2750 O.3     1  ZINC000637608314   -0.1700
     20 C20        -7.3112    1.6563   53.8862 C.3     1  ZINC000637608314    0.1300
     21 C21        -8.3262    2.6664   53.3472 C.3     1  ZINC000637608314    0.0700
     22 H22        -7.8859    3.2297   52.5246 H       1  ZINC000637608314    0.0900
     23 C23        -8.7532    3.6317   54.4737 C.3     1  ZINC000637608314   -0.1500
     24 C24       -10.2719    3.8064   54.2000 C.3     1  ZINC000637608314   -0.1600
     25 C25       -10.6385    2.3987   53.6667 C.3     1  ZINC000637608314    0.0500
     26 O26        -9.4996    1.9813   52.8938 O.3     1  ZINC000637608314   -0.3800
     27 C27        -2.8482    1.7988   48.6916 C.2     1  ZINC000637608314    0.5300
     28 O28        -3.8999    2.1351   48.1712 O.2     1  ZINC000637608314   -0.5400
     29 N29        -1.9092    1.1655   47.9633 N.am    1  ZINC000637608314   -0.6000
     30 H30         1.3114    1.8826   47.1326 H       1  ZINC000637608314    0.0700
     31 H31         1.9560    1.0988   48.5949 H       1  ZINC000637608314    0.0700
     32 H32         2.3028    0.4112   46.9902 H       1  ZINC000637608314    0.0700
     33 H33         0.4805   -0.6899   45.6827 H       1  ZINC000637608314    0.0700
     34 H34        -1.1643   -0.7869   46.3559 H       1  ZINC000637608314    0.0600
     35 H35        -0.5109    0.7815   45.8251 H       1  ZINC000637608314    0.0700
     36 H36         1.0388   -1.1025   49.3400 H       1  ZINC000637608314    0.0700
     37 H37        -0.2593   -1.8870   48.4084 H       1  ZINC000637608314    0.0600
     38 H38         1.3855   -1.7901   47.7352 H       1  ZINC000637608314    0.0700
     39 H39         0.4580    0.7258   50.2690 H       1  ZINC000637608314    0.1500
     40 H40        -1.2384    1.9022   51.6582 H       1  ZINC000637608314    0.1400
     41 H41        -3.1790    3.2936   51.7101 H       1  ZINC000637608314    0.0800
     42 H42        -4.1666    3.5302   50.2482 H       1  ZINC000637608314    0.0800
     43 H43        -4.6673    0.9284   50.9946 H       1  ZINC000637608314    0.4000
     44 H44        -6.0651   -0.0480   51.2228 H       1  ZINC000637608314    0.1200
     45 H45        -5.8120   -0.7402   52.8430 H       1  ZINC000637608314    0.0900
     46 H46        -8.5593    0.0083   50.2881 H       1  ZINC000637608314    0.1500
     47 H47       -10.8600   -1.1355   51.1212 H       1  ZINC000637608314    0.1500
     48 H48       -10.4461   -2.0058   53.5578 H       1  ZINC000637608314    0.2000
     49 H49        -7.8354    0.7700   54.2437 H       1  ZINC000637608314    0.0800
     50 H50        -6.7535    2.1049   54.7083 H       1  ZINC000637608314    0.1000
     51 H51        -8.5845    3.1838   55.4531 H       1  ZINC000637608314    0.0800
     52 H52        -8.2311    4.5846   54.3867 H       1  ZINC000637608314    0.0900
     53 H53       -10.8133    4.0317   55.1190 H       1  ZINC000637608314    0.0800
     54 H54       -10.4493    4.5714   53.4442 H       1  ZINC000637608314    0.0800
     55 H55       -10.8060    1.7117   54.4962 H       1  ZINC000637608314    0.0600
     56 H56       -11.5247    2.4526   53.0342 H       1  ZINC000637608314    0.0800
     57 H57        -2.0758    0.9759   47.0267 H       1  ZINC000637608314    0.4100
@<TRIPOS>BOND
     1     1     2    1
     2     1    30    1
     3     1    31    1
     4     1    32    1
     5     2     3    1
     6     2     4    1
     7     2     5    1
     8     3    33    1
     9     3    34    1
    10     3    35    1
    11     4    36    1
    12     4    37    1
    13     4    38    1
    14     5    29    1
    15     5     6    2
    16     6     7    1
    17     6    39    1
    18     7     8    2
    19     7    40    1
    20     8     9    1
    21     8    27    1
    22     9    10    1
    23     9    41    1
    24     9    42    1
    25    10    11   am
    26    10    43    1
    27    11    12    2
    28    11    13   am
    29    13    14    1
    30    13    20    1
    31    14    15    1
    32    14    44    1
    33    14    45    1
    34    15    19    1
    35    15    16    2
    36    16    17    1
    37    16    46    1
    38    17    18    2
    39    17    47    1
    40    18    19    1
    41    18    48    1
    42    20    21    1
    43    20    49    1
    44    20    50    1
    45    21    22    1
    46    21    26    1
    47    21    23    1
    48    23    24    1
    49    23    51    1
    50    23    52    1
    51    24    25    1
    52    24    53    1
    53    24    54    1
    54    25    26    1
    55    25    55    1
    56    25    56    1
    57    27    28    2
    58    27    29   am
    59    29    57    1
@<TRIPOS>SUBSTRUCTURE
     1 ZINC000637608314        1 TEMP              0 ****  ****    0 ROOT


##########                                Name:    ZINC000482846390
##########                DOCK_Rotatable_Bonds:                   9
##########                         Heavy_Atoms:                  30
##########                    Molecular_Weight:             420.469
##########                DOCK_Rotatable_Bonds:                   9
##########                       Formal_Charge:          -0.0100011
##########                     HBond_Acceptors:                  11
##########                        HBond_Donors:                   2
##########                         Heavy_Atoms:                  30
##########                          Grid_Score:          -33.867832
##########                     Grid_vdw_energy:          -33.095482
##########                      Grid_es_energy:           -0.772350
##########           Internal_energy_repulsive:           29.568588

@<TRIPOS>MOLECULE
ZINC000482846390
 58 60 1 0 0
SMALL
USER_CHARGES


@<TRIPOS>ATOM
      1 C1          1.1670    1.9721   60.0677 C.3     1  ZINC000482846390   -0.1000
      2 C2          0.6422    2.3463   58.7054 C.2     1  ZINC000482846390    0.0900
      3 C3          0.1739    3.5611   58.3369 C.2     1  ZINC000482846390   -0.2700
      4 C4         -0.2122    3.4846   56.9948 C.2     1  ZINC000482846390    0.0700
      5 C5         -0.7904    4.6100   56.1760 C.3     1  ZINC000482846390   -0.0500
      6 C6         -1.8567    4.0562   55.2289 C.3     1  ZINC000482846390    0.1500
      7 H7         -2.3514    4.8813   54.7165 H       1  ZINC000482846390    0.1000
      8 C8         -2.8892    3.2621   56.0317 C.3     1  ZINC000482846390   -0.1700
      9 N9         -1.2244    3.1773   54.2420 N.am    1  ZINC000482846390   -0.6800
     10 C10        -0.8277    3.6740   53.0536 C.2     1  ZINC000482846390    0.5100
     11 O11        -0.9927    4.8494   52.8017 O.2     1  ZINC000482846390   -0.5200
     12 C12        -0.1843    2.7770   52.0461 C.2     1  ZINC000482846390    0.5100
     13 O13         1.0065    2.5512   52.1075 O.2     1  ZINC000482846390   -0.5100
     14 N14        -0.9265    2.2187   51.0695 N.am    1  ZINC000482846390   -0.5900
     15 C15        -2.3684    2.4880   50.9793 C.3     1  ZINC000482846390    0.0500
     16 C16        -2.6793    3.0288   49.5782 C.3     1  ZINC000482846390    0.1000
     17 N17        -2.0612    2.1403   48.5841 N.am    1  ZINC000482846390   -0.6000
     18 C18        -2.8033    1.5827   47.6069 C.2     1  ZINC000482846390    0.5200
     19 O19        -3.9930    1.8128   47.5423 O.2     1  ZINC000482846390   -0.5000
     20 C20        -2.1610    0.6811   46.6028 C.2     1  ZINC000482846390    0.5200
     21 O21        -2.1623   -0.5198   46.7773 O.2     1  ZINC000482846390   -0.5000
     22 N22        -1.5803    1.2018   45.5036 N.am    1  ZINC000482846390   -0.6000
     23 C23        -1.5609    2.6551   45.2735 C.3     1  ZINC000482846390    0.0700
     24 C24        -0.1212    3.0752   44.9564 C.3     1  ZINC000482846390    0.0500
     25 O25         0.3853    2.2580   43.8983 O.3     1  ZINC000482846390   -0.3700
     26 C26         0.4631    0.8670   44.2190 C.3     1  ZINC000482846390    0.0500
     27 C27        -0.9417    0.3343   44.5012 C.3     1  ZINC000482846390    0.0700
     28 C28        -0.6192    1.8710   48.6742 C.3     1  ZINC000482846390    0.0900
     29 C29        -0.3074    1.3346   50.0720 C.3     1  ZINC000482846390    0.0900
     30 N30         0.0161    2.2675   56.5726 N.2     1  ZINC000482846390   -0.2800
     31 N31         0.5605    1.5314   57.6329 N.pl3   1  ZINC000482846390   -0.4700
     32 H32         2.2391    2.1640   60.1092 H       1  ZINC000482846390    0.0800
     33 H33         0.6615    2.5676   60.8279 H       1  ZINC000482846390    0.0900
     34 H34         0.9798    0.9141   60.2511 H       1  ZINC000482846390    0.0700
     35 H35         0.1093    4.4353   58.9678 H       1  ZINC000482846390    0.1500
     36 H36        -1.2417    5.3476   56.8398 H       1  ZINC000482846390    0.0900
     37 H37         0.0024    5.0810   55.5950 H       1  ZINC000482846390    0.1100
     38 H38        -3.3596    3.9160   56.7660 H       1  ZINC000482846390    0.0700
     39 H39        -3.6488    2.8676   55.3569 H       1  ZINC000482846390    0.0700
     40 H40        -2.3945    2.4370   56.5441 H       1  ZINC000482846390    0.0600
     41 H41        -1.0914    2.2379   54.4438 H       1  ZINC000482846390    0.4200
     42 H42        -2.9241    1.5653   51.1468 H       1  ZINC000482846390    0.0800
     43 H43        -2.6499    3.2285   51.7280 H       1  ZINC000482846390    0.1600
     44 H44        -3.7585    3.0529   49.4264 H       1  ZINC000482846390    0.1100
     45 H45        -2.2704    4.0339   49.4750 H       1  ZINC000482846390    0.0800
     46 H46        -2.2091    2.9023   44.4328 H       1  ZINC000482846390    0.0900
     47 H47        -1.9058    3.1731   46.1684 H       1  ZINC000482846390    0.0900
     48 H48        -0.1064    4.1205   44.6480 H       1  ZINC000482846390    0.1100
     49 H49         0.4992    2.9477   45.8436 H       1  ZINC000482846390    0.0600
     50 H50         0.8982    0.3238   43.3801 H       1  ZINC000482846390    0.1100
     51 H51         1.0855    0.7315   45.1035 H       1  ZINC000482846390    0.0600
     52 H52        -0.8782   -0.6849   44.8825 H       1  ZINC000482846390    0.1100
     53 H53        -1.5305    0.3474   43.5839 H       1  ZINC000482846390    0.0800
     54 H54        -0.3379    1.1305   47.9255 H       1  ZINC000482846390    0.0900
     55 H55        -0.0636    2.7936   48.5066 H       1  ZINC000482846390    0.0900
     56 H56         0.7720    1.3110   50.2224 H       1  ZINC000482846390    0.1100
     57 H57        -0.7160    0.3297   50.1778 H       1  ZINC000482846390    0.0800
     58 H58         0.8261    0.5989   57.6031 H       1  ZINC000482846390    0.4400
@<TRIPOS>BOND
     1     1     2    1
     2     1    32    1
     3     1    33    1
     4     1    34    1
     5     2    31    1
     6     2     3    2
     7     3     4    1
     8     3    35    1
     9     4     5    1
    10     4    30    2
    11     5     6    1
    12     5    36    1
    13     5    37    1
    14     6     7    1
    15     6     8    1
    16     6     9    1
    17     8    38    1
    18     8    39    1
    19     8    40    1
    20     9    10   am
    21     9    41    1
    22    10    11    2
    23    10    12    1
    24    12    13    2
    25    12    14   am
    26    14    29    1
    27    14    15    1
    28    15    16    1
    29    15    42    1
    30    15    43    1
    31    16    17    1
    32    16    44    1
    33    16    45    1
    34    17    18   am
    35    17    28    1
    36    18    19    2
    37    18    20    1
    38    20    21    2
    39    20    22   am
    40    22    27    1
    41    22    23    1
    42    23    24    1
    43    23    46    1
    44    23    47    1
    45    24    25    1
    46    24    48    1
    47    24    49    1
    48    25    26    1
    49    26    27    1
    50    26    50    1
    51    26    51    1
    52    27    52    1
    53    27    53    1
    54    28    29    1
    55    28    54    1
    56    28    55    1
    57    29    56    1
    58    29    57    1
    59    30    31    1
    60    31    58    1
@<TRIPOS>SUBSTRUCTURE
     1 ZINC000482846390        1 TEMP              0 ****  ****    0 ROOT


##########                                Name:    ZINC000355549087
##########                DOCK_Rotatable_Bonds:                   9
##########                         Heavy_Atoms:                  23
##########                    Molecular_Weight:             336.415
##########                DOCK_Rotatable_Bonds:                   9
##########                       Formal_Charge:        -9.53674e-07
##########                     HBond_Acceptors:                   8
##########                        HBond_Donors:                   4
##########                         Heavy_Atoms:                  23
##########                          Grid_Score:          -33.853470
##########                     Grid_vdw_energy:          -33.888866
##########                      Grid_es_energy:            0.035395
##########           Internal_energy_repulsive:            9.522604

@<TRIPOS>MOLECULE
ZINC000355549087
 43 44 1 0 0
SMALL
USER_CHARGES


@<TRIPOS>ATOM
      1 C1          0.3493   -1.5835   48.2474 C.3     1  <0>        -0.1500
      2 C2          0.2164   -0.1192   47.8243 C.3     1  <0>        -0.1200
      3 C3         -1.2259    0.1589   47.3959 C.3     1  <0>        -0.1000
      4 H4         -1.9098   -0.3843   48.0480 H       1  <0>         0.0800
      5 C5         -1.4263   -0.3006   45.9504 C.3     1  <0>        -0.1500
      6 C6         -1.5078    1.6594   47.4978 C.3     1  <0>         0.0900
      7 H7         -0.6187    2.1720   47.8649 H       1  <0>         0.1000
      8 O8         -1.8525    2.1679   46.2076 O.3     1  <0>        -0.3500
      9 C9         -1.2563    3.4301   45.9022 C.3     1  <0>         0.0200
     10 C10        -2.6513    1.8919   48.4514 C.2     1  <0>         0.5100
     11 O11        -3.5950    2.5737   48.1118 O.2     1  <0>        -0.4800
     12 N12        -2.6252    1.3423   49.6818 N.am    1  <0>        -0.6200
     13 C13        -3.6804    1.5554   50.5605 C.2     1  <0>         0.2400
     14 N14        -4.6669    0.7369   50.7430 N.2     1  <0>        -0.5000
     15 C15        -5.5915    1.0979   51.6230 C.2     1  <0>         0.1700
     16 C16        -6.7783    0.2613   51.9356 C.2     1  <0>        -0.1100
     17 C17        -7.6568   -0.2640   51.0317 C.2     1  <0>         0.0600
     18 N18        -8.6003   -0.9654   51.7063 N.pl3   1  <0>        -0.5400
     19 C19        -8.3293   -0.8924   53.0539 C.2     1  <0>        -0.0600
     20 C20        -9.1118   -1.5174   54.1260 C.2     1  <0>         0.5900
     21 N21        -9.1919   -0.9260   55.3345 N.am    1  <0>        -0.8600
     22 O22        -9.6886   -2.5699   53.9242 O.2     1  <0>        -0.5300
     23 C23        -7.1997   -0.1401   53.2172 C.2     1  <0>        -0.0600
     24 C24        -5.3613    2.2873   52.2078 C.2     1  <0>        -0.3200
     25 S25        -3.8559    2.9317   51.5586 S.3     1  <0>         0.2500
     26 H26         1.3768   -1.7817   48.5526 H       1  <0>         0.0600
     27 H27        -0.3226   -1.7830   49.0821 H       1  <0>         0.0600
     28 H28         0.0885   -2.2291   47.4086 H       1  <0>         0.0600
     29 H29         0.4771    0.5264   48.6629 H       1  <0>         0.0600
     30 H30         0.8883    0.0803   46.9895 H       1  <0>         0.0700
     31 H31        -0.7423    0.2427   45.2983 H       1  <0>         0.0700
     32 H32        -1.2254   -1.3695   45.8778 H       1  <0>         0.0600
     33 H33        -2.4537   -0.1025   45.6452 H       1  <0>         0.0500
     34 H34        -1.6441    3.7943   44.9507 H       1  <0>         0.0900
     35 H35        -1.4954    4.1450   46.6895 H       1  <0>         0.0500
     36 H36        -0.1747    3.3138   45.8332 H       1  <0>         0.0500
     37 H37        -1.8699    0.7979   49.9538 H       1  <0>         0.4200
     38 H38        -7.6079   -0.1412   49.9598 H       1  <0>         0.1800
     39 H39        -9.3447   -1.4406   51.3051 H       1  <0>         0.4200
     40 H40        -9.7102   -1.3387   56.0430 H       1  <0>         0.4000
     41 H41        -8.7312   -0.0878   55.4957 H       1  <0>         0.4100
     42 H42        -6.7233    0.1058   54.1548 H       1  <0>         0.1500
     43 H43        -5.9877    2.7622   52.9483 H       1  <0>         0.1800
@<TRIPOS>BOND
     1     1     2    1
     2     1    26    1
     3     1    27    1
     4     1    28    1
     5     2     3    1
     6     2    29    1
     7     2    30    1
     8     3     4    1
     9     3     5    1
    10     3     6    1
    11     5    31    1
    12     5    32    1
    13     5    33    1
    14     6     7    1
    15     6     8    1
    16     6    10    1
    17     8     9    1
    18     9    34    1
    19     9    35    1
    20     9    36    1
    21    10    11    2
    22    10    12   am
    23    12    13    1
    24    12    37    1
    25    13    25    1
    26    13    14    2
    27    14    15    1
    28    15    16    1
    29    15    24    2
    30    16    23    1
    31    16    17    2
    32    17    18    1
    33    17    38    1
    34    18    19    1
    35    18    39    1
    36    19    20    1
    37    19    23    2
    38    20    21   am
    39    20    22    2
    40    21    40    1
    41    21    41    1
    42    23    42    1
    43    24    25    1
    44    24    43    1
@<TRIPOS>SUBSTRUCTURE
     1 <0>         1 TEMP              0 ****  ****    0 ROOT


##########                                Name:    ZINC000655235556
##########                DOCK_Rotatable_Bonds:                   6
##########                         Heavy_Atoms:                  23
##########                    Molecular_Weight:             336.778
##########                DOCK_Rotatable_Bonds:                   6
##########                       Formal_Charge:         -0.00999996
##########                     HBond_Acceptors:                   8
##########                        HBond_Donors:                   2
##########                         Heavy_Atoms:                  23
##########                          Grid_Score:          -33.843472
##########                     Grid_vdw_energy:          -31.495338
##########                      Grid_es_energy:           -2.348133
##########           Internal_energy_repulsive:            8.346850

@<TRIPOS>MOLECULE
ZINC000655235556
 40 42 1 0 0
SMALL
USER_CHARGES


@<TRIPOS>ATOM
      1 C1          0.5206   -0.2663   49.6679 C.3     1  ZINC000655235556    0.0200
      2 O2         -0.7225    0.4334   49.7540 O.3     1  ZINC000655235556   -0.2700
      3 C3         -1.3259    0.7630   48.5846 C.ar    1  ZINC000655235556    0.2000
      4 C4         -0.7045    0.4835   47.3777 C.ar    1  ZINC000655235556   -0.2100
      5 C5         -1.3211    0.8197   46.1868 C.ar    1  ZINC000655235556    0.0300
      6 Cl6        -0.5368    0.4665   44.6789 Cl      1  ZINC000655235556   -0.0500
      7 C7         -2.5627    1.4369   46.1903 C.ar    1  ZINC000655235556   -0.1600
      8 C8         -3.1937    1.7216   47.3814 C.ar    1  ZINC000655235556   -0.0300
      9 C9         -2.5837    1.3827   48.5917 C.ar    1  ZINC000655235556   -0.1700
     10 C10        -3.2544    1.6844   49.8700 C.2     1  ZINC000655235556    0.5700
     11 O11        -2.7688    2.4957   50.6347 O.2     1  ZINC000655235556   -0.5100
     12 N12        -4.4054    1.0610   50.1907 N.am    1  ZINC000655235556   -0.7300
     13 C13        -5.0726    1.3620   51.4598 C.3     1  ZINC000655235556    0.2100
     14 C14        -6.1245    0.3184   51.7342 C.2     1  ZINC000655235556    0.2600
     15 N15        -7.4116    0.4565   51.5445 N.2     1  ZINC000655235556   -0.5100
     16 C16        -8.0426   -0.6641   51.8929 C.2     1  ZINC000655235556    0.2200
     17 C17        -9.5305   -0.8913   51.8163 C.3     1  ZINC000655235556    0.1700
     18 H18        -9.7912   -1.3080   50.8435 H       1  ZINC000655235556    0.1100
     19 C19       -10.2758    0.4435   52.0311 C.3     1  ZINC000655235556   -0.1400
     20 C20       -11.4889    0.0080   52.8975 C.3     1  ZINC000655235556   -0.1500
     21 C21       -10.8546   -1.1249   53.7432 C.3     1  ZINC000655235556    0.0500
     22 O22        -9.9389   -1.7891   52.8549 O.3     1  ZINC000655235556   -0.3700
     23 N23        -7.1618   -1.5347   52.3110 N.2     1  ZINC000655235556   -0.2800
     24 N24        -5.9035   -0.9188   52.2113 N.pl3   1  ZINC000655235556   -0.4700
     25 H25         0.3716   -1.2080   49.1395 H       1  ZINC000655235556    0.0600
     26 H26         1.2440    0.3435   49.1266 H       1  ZINC000655235556    0.0600
     27 H27         0.8942   -0.4681   50.6717 H       1  ZINC000655235556    0.1100
     28 H28         0.2626    0.0029   47.3675 H       1  ZINC000655235556    0.1500
     29 H29        -3.0369    1.6959   45.2552 H       1  ZINC000655235556    0.1400
     30 H30        -4.1607    2.2027   47.3794 H       1  ZINC000655235556    0.1400
     31 H31        -4.7921    0.4129   49.5813 H       1  ZINC000655235556    0.4000
     32 H32        -4.3387    1.3589   52.2658 H       1  ZINC000655235556    0.1000
     33 H33        -5.5419    2.3439   51.3996 H       1  ZINC000655235556    0.1100
     34 H34        -9.6498    1.1551   52.5697 H       1  ZINC000655235556    0.0800
     35 H35       -10.6079    0.8597   51.0800 H       1  ZINC000655235556    0.0900
     36 H36       -11.8328    0.8256   53.5311 H       1  ZINC000655235556    0.0900
     37 H37       -12.2993   -0.3724   52.2759 H       1  ZINC000655235556    0.0800
     38 H38       -10.3195   -0.7065   54.5956 H       1  ZINC000655235556    0.0600
     39 H39       -11.6231   -1.8197   54.0818 H       1  ZINC000655235556    0.0900
     40 H40        -5.0461   -1.3068   52.4462 H       1  ZINC000655235556    0.4400
@<TRIPOS>BOND
     1     1     2    1
     2     1    25    1
     3     1    26    1
     4     1    27    1
     5     2     3    1
     6     3     9   ar
     7     3     4   ar
     8     4     5   ar
     9     4    28    1
    10     5     6    1
    11     5     7   ar
    12     7     8   ar
    13     7    29    1
    14     8     9   ar
    15     8    30    1
    16     9    10    1
    17    10    11    2
    18    10    12   am
    19    12    13    1
    20    12    31    1
    21    13    14    1
    22    13    32    1
    23    13    33    1
    24    14    24    1
    25    14    15    2
    26    15    16    1
    27    16    17    1
    28    16    23    2
    29    17    18    1
    30    17    22    1
    31    17    19    1
    32    19    20    1
    33    19    34    1
    34    19    35    1
    35    20    21    1
    36    20    36    1
    37    20    37    1
    38    21    22    1
    39    21    38    1
    40    21    39    1
    41    23    24    1
    42    24    40    1
@<TRIPOS>SUBSTRUCTURE
     1 ZINC000655235556        1 TEMP              0 ****  ****    0 ROOT


##########                                Name:    ZINC001757264545
##########                DOCK_Rotatable_Bonds:                  11
##########                         Heavy_Atoms:                  25
##########                    Molecular_Weight:             344.497
##########                DOCK_Rotatable_Bonds:                  11
##########                       Formal_Charge:          0.00999946
##########                     HBond_Acceptors:                   4
##########                        HBond_Donors:                   2
##########                         Heavy_Atoms:                  25
##########                          Grid_Score:          -33.833347
##########                     Grid_vdw_energy:          -33.257542
##########                      Grid_es_energy:           -0.575806
##########           Internal_energy_repulsive:            7.930662

@<TRIPOS>MOLECULE
ZINC001757264545
 57 57 1 0 0
SMALL
USER_CHARGES


@<TRIPOS>ATOM
      1 C1         -0.1153    2.8389   55.3567 C.1     1  ZINC001757264545   -0.2100
      2 C2         -1.2084    3.1214   55.0347 C.1     1  ZINC001757264545   -0.1900
      3 C3         -2.5789    3.4754   54.6311 C.3     1  ZINC001757264545   -0.0100
      4 C4         -3.4985    3.4292   55.8531 C.3     1  ZINC001757264545   -0.1200
      5 C5         -4.9405    3.6952   55.4165 C.3     1  ZINC001757264545   -0.1200
      6 C6         -5.8578    3.6651   56.6407 C.3     1  ZINC001757264545   -0.1000
      7 C7         -6.3758    2.2415   56.8550 C.3     1  ZINC001757264545   -0.1400
      8 C8         -7.4928    1.9617   55.8828 C.2     1  ZINC001757264545    0.5100
      9 O9         -8.4882    2.6545   55.8871 O.2     1  ZINC001757264545   -0.5400
     10 N10        -7.3856    0.9415   55.0085 N.am    1  ZINC001757264545   -0.7300
     11 C11        -8.4706    0.6707   54.0623 C.3     1  ZINC001757264545    0.1400
     12 H12        -8.8961    1.6132   53.7178 H       1  ZINC001757264545    0.1000
     13 C13        -9.5562   -0.1562   54.7542 C.3     1  ZINC001757264545   -0.1300
     14 C14       -10.6895   -0.4391   53.7659 C.3     1  ZINC001757264545   -0.1200
     15 C15       -10.1400   -1.2181   52.5692 C.3     1  ZINC001757264545   -0.1200
     16 C16        -9.0544   -0.3913   51.8773 C.3     1  ZINC001757264545   -0.1300
     17 C17        -7.9212   -0.1085   52.8656 C.3     1  ZINC001757264545    0.1400
     18 H18        -7.4958   -1.0510   53.2101 H       1  ZINC001757264545    0.1000
     19 N19        -6.8818    0.6833   52.2031 N.am    1  ZINC001757264545   -0.7200
     20 C20        -5.8587    0.0656   51.5799 C.2     1  ZINC001757264545    0.6400
     21 O21        -5.7993   -1.1490   51.5662 O.2     1  ZINC001757264545   -0.5200
     22 C22        -4.8417    0.8396   50.9337 C.1     1  ZINC001757264545   -0.2300
     23 C23        -4.0080    1.4741   50.4041 C.1     1  ZINC001757264545   -0.0500
     24 C24        -2.9626    2.2696   49.7399 C.3     1  ZINC001757264545    0.0300
     25 C25        -2.9486    1.9464   48.2445 C.3     1  ZINC001757264545   -0.1400
     26 C26        -3.2526    3.7588   49.9372 C.3     1  ZINC001757264545   -0.1400
     27 C27        -1.6001    1.9303   50.3478 C.3     1  ZINC001757264545   -0.1400
     28 H28         0.8623    2.5864   55.6446 H       1  ZINC001757264545    0.2200
     29 H29        -2.9324    2.7655   53.8834 H       1  ZINC001757264545    0.0900
     30 H30        -2.5853    4.4806   54.2094 H       1  ZINC001757264545    0.0900
     31 H31        -3.1895    4.1905   56.5693 H       1  ZINC001757264545    0.0700
     32 H32        -3.4353    2.4456   56.3183 H       1  ZINC001757264545    0.0700
     33 H33        -5.2536    2.9274   54.7091 H       1  ZINC001757264545    0.0700
     34 H34        -5.0015    4.6740   54.9409 H       1  ZINC001757264545    0.0700
     35 H35        -6.7002    4.3379   56.4802 H       1  ZINC001757264545    0.0700
     36 H36        -5.2999    3.9849   57.5208 H       1  ZINC001757264545    0.0700
     37 H37        -6.7476    2.1396   57.8745 H       1  ZINC001757264545    0.0900
     38 H38        -5.5652    1.5314   56.6913 H       1  ZINC001757264545    0.0900
     39 H39        -6.5899    0.3867   55.0059 H       1  ZINC001757264545    0.4000
     40 H40        -9.1308   -1.0988   55.0987 H       1  ZINC001757264545    0.0700
     41 H41        -9.9477    0.3988   55.6067 H       1  ZINC001757264545    0.0800
     42 H42       -11.4628   -1.0282   54.2589 H       1  ZINC001757264545    0.0700
     43 H43       -11.1149    0.5034   53.4214 H       1  ZINC001757264545    0.0700
     44 H44       -10.9473   -1.4197   51.8653 H       1  ZINC001757264545    0.0700
     45 H45        -9.7145   -2.1607   52.9137 H       1  ZINC001757264545    0.0700
     46 H46        -9.4798    0.5513   51.5328 H       1  ZINC001757264545    0.0700
     47 H47        -8.6630   -0.9464   51.0248 H       1  ZINC001757264545    0.0800
     48 H48        -6.9297    1.6521   52.2130 H       1  ZINC001757264545    0.4000
     49 H49        -3.9193    2.1882   47.8114 H       1  ZINC001757264545    0.0600
     50 H50        -2.1745    2.5355   47.7527 H       1  ZINC001757264545    0.0700
     51 H51        -2.7421    0.8854   48.1040 H       1  ZINC001757264545    0.0600
     52 H52        -3.2625    3.9891   51.0025 H       1  ZINC001757264545    0.0600
     53 H53        -2.4784    4.3480   49.4454 H       1  ZINC001757264545    0.0700
     54 H54        -4.2232    4.0005   49.5041 H       1  ZINC001757264545    0.0600
     55 H55        -1.3936    0.8693   50.2073 H       1  ZINC001757264545    0.0600
     56 H56        -0.8260    2.5195   49.8560 H       1  ZINC001757264545    0.0700
     57 H57        -1.6102    2.1606   51.4132 H       1  ZINC001757264545    0.0600
@<TRIPOS>BOND
     1     1     2    3
     2     1    28    1
     3     2     3    1
     4     3     4    1
     5     3    29    1
     6     3    30    1
     7     4     5    1
     8     4    31    1
     9     4    32    1
    10     5     6    1
    11     5    33    1
    12     5    34    1
    13     6     7    1
    14     6    35    1
    15     6    36    1
    16     7     8    1
    17     7    37    1
    18     7    38    1
    19     8     9    2
    20     8    10   am
    21    10    11    1
    22    10    39    1
    23    11    12    1
    24    11    17    1
    25    11    13    1
    26    13    14    1
    27    13    40    1
    28    13    41    1
    29    14    15    1
    30    14    42    1
    31    14    43    1
    32    15    16    1
    33    15    44    1
    34    15    45    1
    35    16    17    1
    36    16    46    1
    37    16    47    1
    38    17    18    1
    39    17    19    1
    40    19    20   am
    41    19    48    1
    42    20    21    2
    43    20    22    1
    44    22    23    3
    45    23    24    1
    46    24    25    1
    47    24    26    1
    48    24    27    1
    49    25    49    1
    50    25    50    1
    51    25    51    1
    52    26    52    1
    53    26    53    1
    54    26    54    1
    55    27    55    1
    56    27    56    1
    57    27    57    1
@<TRIPOS>SUBSTRUCTURE
     1 ZINC001757264545        1 TEMP              0 ****  ****    0 ROOT


##########                                Name:    ZINC000191003171
##########                DOCK_Rotatable_Bonds:                   6
##########                         Heavy_Atoms:                  26
##########                    Molecular_Weight:             389.414
##########                DOCK_Rotatable_Bonds:                   6
##########                       Formal_Charge:          -0.0200002
##########                     HBond_Acceptors:                   8
##########                        HBond_Donors:                   1
##########                         Heavy_Atoms:                  26
##########                          Grid_Score:          -33.768105
##########                     Grid_vdw_energy:          -32.808235
##########                      Grid_es_energy:           -0.959870
##########           Internal_energy_repulsive:           15.624787

@<TRIPOS>MOLECULE
ZINC000191003171
 45 46 1 0 0
SMALL
USER_CHARGES


@<TRIPOS>ATOM
      1 C1         -6.9022    2.4587   54.6436 C.3     1  ZINC000191003171   -0.1200
      2 C2         -7.2745    1.4332   53.6039 C.ar    1  ZINC000191003171   -0.0800
      3 C3         -8.3554    0.5978   53.8133 C.ar    1  ZINC000191003171   -0.0700
      4 C4         -8.6969   -0.3431   52.8594 C.ar    1  ZINC000191003171   -0.1800
      5 C5         -9.8752   -1.2543   53.0879 C.3     1  ZINC000191003171    0.5100
      6 F6        -10.4351   -1.6104   51.8563 F       1  ZINC000191003171   -0.1800
      7 F7         -9.4505   -2.4067   53.7577 F       1  ZINC000191003171   -0.1800
      8 F8        -10.8340   -0.5917   53.8619 F       1  ZINC000191003171   -0.1800
      9 C9         -7.9578   -0.4476   51.6962 C.ar    1  ZINC000191003171   -0.0800
     10 C10        -6.8768    0.3884   51.4866 C.ar    1  ZINC000191003171   -0.1000
     11 C11        -6.5380    1.3319   52.4382 C.ar    1  ZINC000191003171   -0.0500
     12 C12        -5.3597    2.2431   52.2097 C.3     1  ZINC000191003171    0.0900
     13 N13        -4.6655    1.8463   50.9775 N.3     1  ZINC000191003171   -0.6800
     14 C14        -3.3798    2.5453   50.8491 C.3     1  ZINC000191003171    0.1200
     15 H15        -2.9114    2.6277   51.8299 H       1  ZINC000191003171    0.0600
     16 C16        -3.6150    3.9448   50.2772 C.3     1  ZINC000191003171   -0.1400
     17 C17        -2.4767    1.7702   49.9248 C.ar    1  ZINC000191003171   -0.0100
     18 C18        -2.8981    1.4625   48.6447 C.ar    1  ZINC000191003171   -0.1300
     19 C19        -2.0705    0.7514   47.7955 C.ar    1  ZINC000191003171    0.0100
     20 C20        -0.8211    0.3473   48.2256 C.ar    1  ZINC000191003171   -0.7000
     21 S21         0.2331   -0.5590   47.1430 S.o2    1  ZINC000191003171    2.5000
     22 C22         0.4360   -2.1698   47.9522 C.3     1  ZINC000191003171   -0.6500
     23 O23        -0.5238   -0.6931   45.9479 O.2     1  ZINC000191003171   -0.9300
     24 O24         1.4562    0.1642   47.1583 O.2     1  ZINC000191003171   -0.9300
     25 C25        -0.3977    0.6553   49.5076 C.ar    1  ZINC000191003171    0.1900
     26 F26         0.8237    0.2607   49.9293 F       1  ZINC000191003171   -0.1200
     27 C27        -1.2251    1.3719   50.3552 C.ar    1  ZINC000191003171   -0.1700
     28 H28        -7.4334    3.3891   54.4427 H       1  ZINC000191003171    0.0800
     29 H29        -7.1764    2.0901   55.6321 H       1  ZINC000191003171    0.0800
     30 H30        -5.8278    2.6387   54.6081 H       1  ZINC000191003171    0.0600
     31 H31        -8.9331    0.6797   54.7221 H       1  ZINC000191003171    0.1400
     32 H32        -8.2244   -1.1825   50.9512 H       1  ZINC000191003171    0.1400
     33 H33        -6.2990    0.3066   50.5778 H       1  ZINC000191003171    0.1400
     34 H34        -5.7085    3.2714   52.1152 H       1  ZINC000191003171    0.0900
     35 H35        -4.6736    2.1684   53.0535 H       1  ZINC000191003171    0.0500
     36 H36        -4.5385    0.8460   50.9401 H       1  ZINC000191003171    0.3500
     37 H37        -2.6611    4.4634   50.1820 H       1  ZINC000191003171    0.0600
     38 H38        -4.0833    3.8624   49.2963 H       1  ZINC000191003171    0.0700
     39 H39        -4.2682    4.5054   50.9459 H       1  ZINC000191003171    0.0600
     40 H40        -3.8746    1.7776   48.3078 H       1  ZINC000191003171    0.1500
     41 H41        -2.4009    0.5113   46.7957 H       1  ZINC000191003171    0.1600
     42 H42        -0.5384   -2.6455   48.0639 H       1  ZINC000191003171    0.1300
     43 H43         1.0818   -2.8031   47.3442 H       1  ZINC000191003171    0.1400
     44 H44         0.8862   -2.0286   48.9348 H       1  ZINC000191003171    0.1300
     45 H45        -0.8957    1.6130   51.3551 H       1  ZINC000191003171    0.1500
@<TRIPOS>BOND
     1     1     2    1
     2     1    28    1
     3     1    29    1
     4     1    30    1
     5     2    11   ar
     6     2     3   ar
     7     3     4   ar
     8     3    31    1
     9     4     5    1
    10     4     9   ar
    11     5     6    1
    12     5     7    1
    13     5     8    1
    14     9    10   ar
    15     9    32    1
    16    10    11   ar
    17    10    33    1
    18    11    12    1
    19    12    13    1
    20    12    34    1
    21    12    35    1
    22    13    14    1
    23    13    36    1
    24    14    15    1
    25    14    16    1
    26    14    17    1
    27    16    37    1
    28    16    38    1
    29    16    39    1
    30    17    27   ar
    31    17    18   ar
    32    18    19   ar
    33    18    40    1
    34    19    20   ar
    35    19    41    1
    36    20    21    1
    37    20    25   ar
    38    21    22    1
    39    21    23    2
    40    21    24    2
    41    22    42    1
    42    22    43    1
    43    22    44    1
    44    25    26    1
    45    25    27   ar
    46    27    45    1
@<TRIPOS>SUBSTRUCTURE
     1 ZINC000191003171        1 TEMP              0 ****  ****    0 ROOT


##########                                Name:    ZINC000114394234
##########                DOCK_Rotatable_Bonds:                   9
##########                         Heavy_Atoms:                  27
##########                    Molecular_Weight:             365.392
##########                DOCK_Rotatable_Bonds:                   9
##########                       Formal_Charge:           0.0300002
##########                     HBond_Acceptors:                   8
##########                        HBond_Donors:                   3
##########                         Heavy_Atoms:                  27
##########                          Grid_Score:          -33.762722
##########                     Grid_vdw_energy:          -31.977247
##########                      Grid_es_energy:           -1.785475
##########           Internal_energy_repulsive:           10.730720

@<TRIPOS>MOLECULE
ZINC000114394234
 46 48 1 0 0
SMALL
USER_CHARGES


@<TRIPOS>ATOM
      1 C1        -10.7351   -4.4320   58.0231 C.3     1  ZINC000114394234   -0.1600
      2 C2        -10.9083   -2.9240   57.8310 C.3     1  ZINC000114394234    0.1300
      3 H3        -11.9328   -2.6420   58.0742 H       1  ZINC000114394234    0.1200
      4 N4         -9.9826   -2.2097   58.7138 N.am    1  ZINC000114394234   -0.7100
      5 C5        -10.2848   -2.0465   60.0170 C.2     1  ZINC000114394234    0.5200
      6 O6        -11.3239   -2.4896   60.4587 O.2     1  ZINC000114394234   -0.5100
      7 C7         -9.3318   -1.3134   60.9254 C.3     1  ZINC000114394234    0.0400
      8 O8        -10.0669   -0.6739   61.9707 O.3     1  ZINC000114394234   -0.2900
      9 C9         -9.3462   -0.1003   62.9701 C.ar    1  ZINC000114394234    0.1300
     10 C10        -7.9603   -0.1585   62.9488 C.ar    1  ZINC000114394234   -0.2100
     11 C11        -7.2300    0.4257   63.9657 C.ar    1  ZINC000114394234   -0.0800
     12 C12        -7.8792    1.0675   65.0041 C.ar    1  ZINC000114394234   -0.1600
     13 C13        -9.2604    1.1263   65.0278 C.ar    1  ZINC000114394234   -0.0800
     14 C14        -9.9951    0.5491   64.0101 C.ar    1  ZINC000114394234   -0.1500
     15 C15       -10.6149   -2.5633   56.3976 C.2     1  ZINC000114394234    0.5100
     16 O16       -10.1310   -3.3882   55.6515 O.2     1  ZINC000114394234   -0.5100
     17 N17       -10.8899   -1.3241   55.9446 N.am    1  ZINC000114394234   -0.6700
     18 C18       -10.6174   -0.9892   54.6135 C.ar    1  ZINC000114394234    0.1300
     19 C19       -11.6596   -0.8430   53.7065 C.ar    1  ZINC000114394234   -0.1200
     20 C20       -11.3942   -0.5122   52.3909 C.ar    1  ZINC000114394234   -0.1000
     21 C21       -10.0926   -0.3258   51.9709 C.ar    1  ZINC000114394234   -0.0900
     22 C22        -9.0408   -0.4709   52.8740 C.ar    1  ZINC000114394234    0.0000
     23 C23        -7.6408   -0.2713   52.4238 C.2     1  ZINC000114394234    0.2700
     24 N24        -6.9629   -1.0849   51.6442 N.2     1  ZINC000114394234   -0.3000
     25 N25        -5.6906   -0.5152   51.4747 N.pl3   1  ZINC000114394234   -0.4800
     26 C26        -5.6874    0.6301   52.1803 C.2     1  ZINC000114394234    0.2700
     27 N27        -6.8599    0.7705   52.7398 N.2     1  ZINC000114394234   -0.5300
     28 C28        -9.3073   -0.7974   54.2006 C.ar    1  ZINC000114394234   -0.0800
     29 H29        -9.7107   -4.7140   57.7799 H       1  ZINC000114394234    0.0700
     30 H30       -10.9474   -4.6930   59.0599 H       1  ZINC000114394234    0.0800
     31 H31       -11.4239   -4.9633   57.3663 H       1  ZINC000114394234    0.0800
     32 H32        -9.1522   -1.8543   58.3602 H       1  ZINC000114394234    0.4100
     33 H33        -8.6254   -2.0215   61.3586 H       1  ZINC000114394234    0.1000
     34 H34        -8.7880   -0.5627   60.3519 H       1  ZINC000114394234    0.1000
     35 H35        -7.4527   -0.6603   62.1383 H       1  ZINC000114394234    0.1300
     36 H36        -6.1511    0.3807   63.9496 H       1  ZINC000114394234    0.1300
     37 H37        -7.3066    1.5233   65.7982 H       1  ZINC000114394234    0.1300
     38 H38        -9.7653    1.6279   65.8402 H       1  ZINC000114394234    0.1300
     39 H39       -11.0740    0.5954   64.0291 H       1  ZINC000114394234    0.1300
     40 H40       -11.2769   -0.6645   56.5413 H       1  ZINC000114394234    0.4200
     41 H41       -12.6796   -0.9885   54.0301 H       1  ZINC000114394234    0.1300
     42 H42       -12.2077   -0.3997   51.6895 H       1  ZINC000114394234    0.1400
     43 H43        -9.8890   -0.0678   50.9421 H       1  ZINC000114394234    0.1400
     44 H44        -4.9579   -0.8768   50.9519 H       1  ZINC000114394234    0.4400
     45 H45        -4.8592    1.3181   52.2657 H       1  ZINC000114394234    0.2300
     46 H46        -8.4958   -0.9109   54.9040 H       1  ZINC000114394234    0.1500
@<TRIPOS>BOND
     1     1     2    1
     2     1    29    1
     3     1    30    1
     4     1    31    1
     5     2     3    1
     6     2     4    1
     7     2    15    1
     8     4     5   am
     9     4    32    1
    10     5     6    2
    11     5     7    1
    12     7     8    1
    13     7    33    1
    14     7    34    1
    15     8     9    1
    16     9    14   ar
    17     9    10   ar
    18    10    11   ar
    19    10    35    1
    20    11    12   ar
    21    11    36    1
    22    12    13   ar
    23    12    37    1
    24    13    14   ar
    25    13    38    1
    26    14    39    1
    27    15    16    2
    28    15    17   am
    29    17    18    1
    30    17    40    1
    31    18    28   ar
    32    18    19   ar
    33    19    20   ar
    34    19    41    1
    35    20    21   ar
    36    20    42    1
    37    21    22   ar
    38    21    43    1
    39    22    23    1
    40    22    28   ar
    41    23    27    1
    42    23    24    2
    43    24    25    1
    44    25    26    1
    45    25    44    1
    46    26    27    2
    47    26    45    1
    48    28    46    1
@<TRIPOS>SUBSTRUCTURE
     1 ZINC000114394234        1 TEMP              0 ****  ****    0 ROOT


##########                                Name:    ZINC000409064708
##########                DOCK_Rotatable_Bonds:                   8
##########                         Heavy_Atoms:                  29
##########                    Molecular_Weight:             415.442
##########                DOCK_Rotatable_Bonds:                   8
##########                       Formal_Charge:                0.03
##########                     HBond_Acceptors:                   8
##########                        HBond_Donors:                   0
##########                         Heavy_Atoms:                  29
##########                          Grid_Score:          -33.680847
##########                     Grid_vdw_energy:          -32.446651
##########                      Grid_es_energy:           -1.234194
##########           Internal_energy_repulsive:           23.968021

@<TRIPOS>MOLECULE
ZINC000409064708
 47 49 1 0 0
SMALL
USER_CHARGES


@<TRIPOS>ATOM
      1 C1        -12.1275    0.4203   51.3086 C.3     1  ZINC000409064708    0.0400
      2 O2        -10.7453    0.6321   51.6997 O.3     1  ZINC000409064708   -0.3500
      3 C3        -10.2193   -0.2390   52.5749 C.2     1  ZINC000409064708    0.4600
      4 O4        -10.5208   -1.4077   52.5195 O.2     1  ZINC000409064708   -0.4900
      5 C5         -9.2526    0.2407   53.6269 C.3     1  ZINC000409064708    0.1400
      6 H6         -9.6212    1.1694   54.0626 H       1  ZINC000409064708    0.1500
      7 C7         -9.1224   -0.8200   54.7216 C.3     1  ZINC000409064708   -0.1600
      8 N8         -7.9420    0.4749   53.0153 N.am    1  ZINC000409064708   -0.5600
      9 C9         -7.4033   -0.4430   52.2044 C.2     1  ZINC000409064708    0.5400
     10 O10        -7.8940   -1.5112   51.8920 O.2     1  ZINC000409064708   -0.4200
     11 S11        -5.8383    0.1959   51.6717 S.3     1  ZINC000409064708   -0.0100
     12 C12        -5.9837    1.7088   52.5883 C.2     1  ZINC000409064708   -0.2400
     13 C13        -5.0975    2.7346   52.6523 C.2     1  ZINC000409064708    0.0900
     14 C14        -3.8380    2.6646   51.9007 C.ar    1  ZINC000409064708   -0.1400
     15 C15        -3.8440    2.7908   50.5060 C.ar    1  ZINC000409064708    0.0000
     16 C16        -2.6601    2.7244   49.8064 C.ar    1  ZINC000409064708   -0.1600
     17 C17        -1.4604    2.5320   50.4819 C.ar    1  ZINC000409064708    0.1600
     18 O18        -0.2959    2.4673   49.7869 O.3     1  ZINC000409064708   -0.3000
     19 C19        -0.3399    2.8490   48.4105 C.3     1  ZINC000409064708    0.1000
     20 C20        -0.7604    1.6675   47.5748 C.ar    1  ZINC000409064708   -0.0700
     21 C21        -1.5533    1.8579   46.4588 C.ar    1  ZINC000409064708   -0.1000
     22 C22        -1.9400    0.7749   45.6912 C.ar    1  ZINC000409064708   -0.0900
     23 C23        -1.5339   -0.4992   46.0389 C.ar    1  ZINC000409064708   -0.1400
     24 C24        -0.7390   -0.6912   47.1565 C.ar    1  ZINC000409064708    0.1000
     25 F25        -0.3414   -1.9366   47.4976 F       1  ZINC000409064708   -0.1400
     26 C26        -0.3482    0.3945   47.9214 C.ar    1  ZINC000409064708   -0.1300
     27 C27        -1.4486    2.4061   51.8662 C.ar    1  ZINC000409064708   -0.2200
     28 C28        -2.6258    2.4772   52.5764 C.ar    1  ZINC000409064708   -0.0400
     29 C29        -7.2854    1.5972   53.2565 C.2     1  ZINC000409064708    0.5600
     30 O30        -7.7245    2.4690   53.9834 O.2     1  ZINC000409064708   -0.4600
     31 H31       -12.2269   -0.5598   50.8419 H       1  ZINC000409064708    0.0700
     32 H32       -12.7663    0.4693   52.1904 H       1  ZINC000409064708    0.0700
     33 H33       -12.4269    1.1922   50.5997 H       1  ZINC000409064708    0.1100
     34 H34       -10.0975   -0.9941   55.1767 H       1  ZINC000409064708    0.1000
     35 H35        -8.7538   -1.7486   54.2859 H       1  ZINC000409064708    0.0800
     36 H36        -8.4232   -0.4731   55.4824 H       1  ZINC000409064708    0.0800
     37 H37        -5.3186    3.6024   53.2561 H       1  ZINC000409064708    0.1600
     38 H38        -4.7755    2.9395   49.9803 H       1  ZINC000409064708    0.1300
     39 H39        -2.6635    2.8216   48.7309 H       1  ZINC000409064708    0.1400
     40 H40        -1.0570    3.6594   48.2809 H       1  ZINC000409064708    0.0800
     41 H41         0.6481    3.1840   48.0947 H       1  ZINC000409064708    0.0800
     42 H42        -1.8715    2.8534   46.1865 H       1  ZINC000409064708    0.1300
     43 H43        -2.5599    0.9248   44.8196 H       1  ZINC000409064708    0.1400
     44 H44        -1.8366   -1.3452   45.4396 H       1  ZINC000409064708    0.1400
     45 H45         0.2720    0.2461   48.7930 H       1  ZINC000409064708    0.1400
     46 H46        -0.5138    2.2565   52.3859 H       1  ZINC000409064708    0.1300
     47 H47        -2.6155    2.3793   53.6520 H       1  ZINC000409064708    0.1300
@<TRIPOS>BOND
     1     1     2    1
     2     1    31    1
     3     1    32    1
     4     1    33    1
     5     2     3    1
     6     3     4    2
     7     3     5    1
     8     5     6    1
     9     5     7    1
    10     5     8    1
    11     7    34    1
    12     7    35    1
    13     7    36    1
    14     8    29   am
    15     8     9   am
    16     9    10    2
    17     9    11    1
    18    11    12    1
    19    12    13    2
    20    12    29    1
    21    13    14    1
    22    13    37    1
    23    14    28   ar
    24    14    15   ar
    25    15    16   ar
    26    15    38    1
    27    16    17   ar
    28    16    39    1
    29    17    18    1
    30    17    27   ar
    31    18    19    1
    32    19    20    1
    33    19    40    1
    34    19    41    1
    35    20    26   ar
    36    20    21   ar
    37    21    22   ar
    38    21    42    1
    39    22    23   ar
    40    22    43    1
    41    23    24   ar
    42    23    44    1
    43    24    25    1
    44    24    26   ar
    45    26    45    1
    46    27    28   ar
    47    27    46    1
    48    28    47    1
    49    29    30    2
@<TRIPOS>SUBSTRUCTURE
     1 ZINC000409064708        1 TEMP              0 ****  ****    0 ROOT


##########                                Name:    ZINC000058043838
##########                DOCK_Rotatable_Bonds:                   8
##########                         Heavy_Atoms:                  29
##########                    Molecular_Weight:             412.469
##########                DOCK_Rotatable_Bonds:                   8
##########                       Formal_Charge:           0.0200001
##########                     HBond_Acceptors:                   9
##########                        HBond_Donors:                   0
##########                         Heavy_Atoms:                  29
##########                          Grid_Score:          -33.673275
##########                     Grid_vdw_energy:          -32.202999
##########                      Grid_es_energy:           -1.470277
##########           Internal_energy_repulsive:            8.593663

@<TRIPOS>MOLECULE
ZINC000058043838
 49 51 1 0 0
SMALL
USER_CHARGES


@<TRIPOS>ATOM
      1 C1         -1.8053   -0.1392   43.5300 C.3     1  ZINC000058043838    0.0300
      2 O2         -1.9130   -0.5782   44.8856 O.3     1  ZINC000058043838   -0.3800
      3 C3         -1.6592    0.4453   45.8500 C.3     1  ZINC000058043838    0.0300
      4 C4         -1.9007   -0.1076   47.2560 C.3     1  ZINC000058043838    0.1000
      5 N5         -1.3964    0.8448   48.2485 N.am    1  ZINC000058043838   -0.5200
      6 C6         -0.0746    0.9184   48.5009 C.2     1  ZINC000058043838    0.5100
      7 O7          0.6973    0.1952   47.9075 O.2     1  ZINC000058043838   -0.4500
      8 C8          0.4444    1.8992   49.5206 C.3     1  ZINC000058043838   -0.0900
      9 C9          1.8669    1.5500   49.8748 C.ar    1  ZINC000058043838   -0.1400
     10 C10         2.1353    0.6333   50.8795 C.ar    1  ZINC000058043838   -0.0500
     11 C11         3.4595    0.3424   51.1711 C.ar    1  ZINC000058043838   -0.1700
     12 C12         4.4604    0.9713   50.4555 C.ar    1  ZINC000058043838    0.1300
     13 C13         5.9029    0.6625   50.7635 C.3     1  ZINC000058043838   -0.1100
     14 N14         4.1679    1.8386   49.5059 N.ar    1  ZINC000058043838   -0.4800
     15 C15         2.9206    2.1355   49.1983 C.ar    1  ZINC000058043838    0.1200
     16 C16        -2.2809    1.6721   48.9296 C.2     1  ZINC000058043838    0.3100
     17 N17        -3.1364    1.2812   49.8220 N.2     1  ZINC000058043838   -0.4700
     18 C18        -3.9025    2.2137   50.3707 C.2     1  ZINC000058043838    0.1100
     19 C19        -4.9194    1.8979   51.4031 C.ar    1  ZINC000058043838    0.0400
     20 C20        -5.1682    2.7976   52.4382 C.ar    1  ZINC000058043838   -0.0800
     21 C21        -6.1159    2.4986   53.3958 C.ar    1  ZINC000058043838   -0.0500
     22 C22        -6.8184    1.3088   53.3297 C.ar    1  ZINC000058043838   -0.0400
     23 N23        -7.8338    0.9938   54.3599 N.pl3   1  ZINC000058043838    0.0300
     24 O24        -8.0494    1.7815   55.2634 O.2     1  ZINC000058043838   -0.1600
     25 O25        -8.4536   -0.0532   54.3039 O.2     1  ZINC000058043838   -0.1600
     26 C26        -6.5760    0.4123   52.3044 C.ar    1  ZINC000058043838   -0.0500
     27 C27        -5.6340    0.7029   51.3386 C.ar    1  ZINC000058043838   -0.1100
     28 C28        -3.6936    3.4661   49.9266 C.2     1  ZINC000058043838   -0.2600
     29 S29        -2.4095    3.4160   48.7208 S.3     1  ZINC000058043838    0.1500
     30 H30        -2.5247    0.6593   43.3484 H       1  ZINC000058043838    0.0500
     31 H31        -0.7968    0.2321   43.3473 H       1  ZINC000058043838    0.0400
     32 H32        -2.0121   -0.9739   42.8602 H       1  ZINC000058043838    0.0900
     33 H33        -0.6250    0.7781   45.7631 H       1  ZINC000058043838    0.0600
     34 H34        -2.3281    1.2871   45.6708 H       1  ZINC000058043838    0.0800
     35 H35        -2.9692   -0.2593   47.4082 H       1  ZINC000058043838    0.1200
     36 H36        -1.3791   -1.0583   47.3671 H       1  ZINC000058043838    0.1000
     37 H37         0.4101    2.9066   49.1059 H       1  ZINC000058043838    0.1100
     38 H38        -0.1748    1.8537   50.4164 H       1  ZINC000058043838    0.1100
     39 H39         1.3322    0.1573   51.4224 H       1  ZINC000058043838    0.1300
     40 H40         3.7054   -0.3667   51.9478 H       1  ZINC000058043838    0.1400
     41 H41         6.2352   -0.1729   50.1471 H       1  ZINC000058043838    0.0800
     42 H42         6.5157    1.5381   50.5495 H       1  ZINC000058043838    0.0800
     43 H43         6.0011    0.3987   51.8165 H       1  ZINC000058043838    0.0800
     44 H44         2.7200    2.8509   48.4143 H       1  ZINC000058043838    0.1500
     45 H45        -4.6201    3.7267   52.4910 H       1  ZINC000058043838    0.1600
     46 H46        -6.3093    3.1948   54.1985 H       1  ZINC000058043838    0.1600
     47 H47        -7.1273   -0.5152   52.2577 H       1  ZINC000058043838    0.1600
     48 H48        -5.4458    0.0025   50.5383 H       1  ZINC000058043838    0.1500
     49 H49        -4.2196    4.3503   50.2551 H       1  ZINC000058043838    0.1800
@<TRIPOS>BOND
     1     1     2    1
     2     1    30    1
     3     1    31    1
     4     1    32    1
     5     2     3    1
     6     3     4    1
     7     3    33    1
     8     3    34    1
     9     4     5    1
    10     4    35    1
    11     4    36    1
    12     5     6   am
    13     5    16    1
    14     6     7    2
    15     6     8    1
    16     8     9    1
    17     8    37    1
    18     8    38    1
    19     9    15   ar
    20     9    10   ar
    21    10    11   ar
    22    10    39    1
    23    11    12   ar
    24    11    40    1
    25    12    13    1
    26    12    14   ar
    27    13    41    1
    28    13    42    1
    29    13    43    1
    30    14    15   ar
    31    15    44    1
    32    16    29    1
    33    16    17    2
    34    17    18    1
    35    18    19    1
    36    18    28    2
    37    19    27   ar
    38    19    20   ar
    39    20    21   ar
    40    20    45    1
    41    21    22   ar
    42    21    46    1
    43    22    23    1
    44    22    26   ar
    45    23    24    2
    46    23    25    2
    47    26    27   ar
    48    26    47    1
    49    27    48    1
    50    28    29    1
    51    28    49    1
@<TRIPOS>SUBSTRUCTURE
     1 ZINC000058043838        1 TEMP              0 ****  ****    0 ROOT


##########                                Name:    ZINC001408567397
##########                DOCK_Rotatable_Bonds:                   9
##########                         Heavy_Atoms:                  24
##########                    Molecular_Weight:             336.434
##########                DOCK_Rotatable_Bonds:                   9
##########                       Formal_Charge:          -0.0199996
##########                     HBond_Acceptors:                   7
##########                        HBond_Donors:                   2
##########                         Heavy_Atoms:                  24
##########                          Grid_Score:          -33.656372
##########                     Grid_vdw_energy:          -33.728115
##########                      Grid_es_energy:            0.071745
##########           Internal_energy_repulsive:           15.604871

@<TRIPOS>MOLECULE
ZINC001408567397
 52 53 1 0 0
SMALL
USER_CHARGES


@<TRIPOS>ATOM
      1 C1         -2.1168    0.2730   45.0192 C.3     1  ZINC001408567397   -0.0800
      2 C2         -1.3509   -0.1698   46.2392 C.2     1  ZINC001408567397    0.0900
      3 N3         -0.8876   -1.3735   46.4592 N.2     1  ZINC001408567397   -0.2900
      4 N4         -0.2385   -1.3725   47.7005 N.pl3   1  ZINC001408567397   -0.4700
      5 C5         -0.3289   -0.1286   48.2156 C.2     1  ZINC001408567397    0.1100
      6 C6          0.2307    0.3284   49.5381 C.3     1  ZINC001408567397   -0.1000
      7 C7         -1.0074    0.6365   47.3293 C.2     1  ZINC001408567397   -0.2200
      8 C8         -1.3415    2.0969   47.4920 C.3     1  ZINC001408567397   -0.0600
      9 C9         -2.6775    2.2334   48.1758 C.2     1  ZINC001408567397    0.5100
     10 O10        -3.7001    2.0416   47.5526 O.2     1  ZINC001408567397   -0.5300
     11 N11        -2.7360    2.5687   49.4799 N.am    1  ZINC001408567397   -0.7300
     12 C12        -4.0347    2.6997   50.1451 C.3     1  ZINC001408567397    0.1100
     13 C13        -3.8472    2.5776   51.6585 C.3     1  ZINC001408567397    0.1000
     14 N14        -5.1580    2.5043   52.3087 N.am    1  ZINC001408567397   -0.6200
     15 C15        -5.7865    3.7210   52.8292 C.3     1  ZINC001408567397    0.0700
     16 C16        -5.7856    1.3176   52.4280 C.2     1  ZINC001408567397    0.5100
     17 O17        -5.2646    0.3102   51.9985 O.2     1  ZINC001408567397   -0.5300
     18 C18        -7.1348    1.2425   53.0953 C.3     1  ZINC001408567397   -0.1300
     19 C19        -7.8385   -0.0506   52.6788 C.3     1  ZINC001408567397   -0.1100
     20 H20        -7.2051   -0.9041   52.9207 H       1  ZINC001408567397    0.0900
     21 C21        -9.1696   -0.1728   53.4267 C.3     1  ZINC001408567397   -0.1200
     22 C22        -9.9001   -1.4299   52.9446 C.3     1  ZINC001408567397   -0.1600
     23 C23       -10.0911   -1.3495   51.4278 C.3     1  ZINC001408567397    0.0600
     24 O24        -8.8177   -1.2059   50.7955 O.3     1  ZINC001408567397   -0.3800
     25 C25        -8.1078   -0.0242   51.1720 C.3     1  ZINC001408567397    0.0600
     26 H26        -1.4189    0.6300   44.2619 H       1  ZINC001408567397    0.0800
     27 H27        -2.6851   -0.5679   44.6219 H       1  ZINC001408567397    0.0700
     28 H28        -2.8002    1.0773   45.2914 H       1  ZINC001408567397    0.0800
     29 H29         0.1988   -2.1321   48.1164 H       1  ZINC001408567397    0.4400
     30 H30         1.2478    0.6932   49.3956 H       1  ZINC001408567397    0.0800
     31 H31        -0.3903    1.1300   49.9380 H       1  ZINC001408567397    0.0900
     32 H32         0.2393   -0.5078   50.2373 H       1  ZINC001408567397    0.0700
     33 H33        -0.5734    2.5803   48.0957 H       1  ZINC001408567397    0.1000
     34 H34        -1.3851    2.5711   46.5116 H       1  ZINC001408567397    0.1000
     35 H35        -1.9182    2.7233   49.9781 H       1  ZINC001408567397    0.4000
     36 H36        -4.4670    3.6722   49.9098 H       1  ZINC001408567397    0.0700
     37 H37        -4.7024    1.9116   49.7969 H       1  ZINC001408567397    0.0700
     38 H38        -3.2795    1.6746   51.8826 H       1  ZINC001408567397    0.0800
     39 H39        -3.3061    3.4483   52.0290 H       1  ZINC001408567397    0.0900
     40 H40        -6.4008    4.1740   52.0512 H       1  ZINC001408567397    0.0600
     41 H41        -6.4122    3.4690   53.6855 H       1  ZINC001408567397    0.0800
     42 H42        -5.0141    4.4252   53.1384 H       1  ZINC001408567397    0.0800
     43 H43        -7.0061    1.2538   54.1776 H       1  ZINC001408567397    0.1000
     44 H44        -7.7381    2.0983   52.7922 H       1  ZINC001408567397    0.1000
     45 H45        -8.9805   -0.2491   54.4975 H       1  ZINC001408567397    0.0700
     46 H46        -9.7831    0.7052   53.2251 H       1  ZINC001408567397    0.0600
     47 H47        -9.3088   -2.3118   53.1910 H       1  ZINC001408567397    0.0700
     48 H48       -10.8732   -1.4951   53.4314 H       1  ZINC001408567397    0.0700
     49 H49       -10.5724   -2.2609   51.0732 H       1  ZINC001408567397    0.0900
     50 H50       -10.7163   -0.4901   51.1853 H       1  ZINC001408567397    0.0500
     51 H51        -8.7063    0.8532   50.9265 H       1  ZINC001408567397    0.0400
     52 H52        -7.1614    0.0187   50.6328 H       1  ZINC001408567397    0.1100
@<TRIPOS>BOND
     1     1     2    1
     2     1    26    1
     3     1    27    1
     4     1    28    1
     5     2     7    1
     6     2     3    2
     7     3     4    1
     8     4     5    1
     9     4    29    1
    10     5     6    1
    11     5     7    2
    12     6    30    1
    13     6    31    1
    14     6    32    1
    15     7     8    1
    16     8     9    1
    17     8    33    1
    18     8    34    1
    19     9    10    2
    20     9    11   am
    21    11    12    1
    22    11    35    1
    23    12    13    1
    24    12    36    1
    25    12    37    1
    26    13    14    1
    27    13    38    1
    28    13    39    1
    29    14    15    1
    30    14    16   am
    31    15    40    1
    32    15    41    1
    33    15    42    1
    34    16    17    2
    35    16    18    1
    36    18    19    1
    37    18    43    1
    38    18    44    1
    39    19    20    1
    40    19    25    1
    41    19    21    1
    42    21    22    1
    43    21    45    1
    44    21    46    1
    45    22    23    1
    46    22    47    1
    47    22    48    1
    48    23    24    1
    49    23    49    1
    50    23    50    1
    51    24    25    1
    52    25    51    1
    53    25    52    1
@<TRIPOS>SUBSTRUCTURE
     1 ZINC001408567397        1 TEMP              0 ****  ****    0 ROOT


##########                                Name:    ZINC000464139057
##########                DOCK_Rotatable_Bonds:                   9
##########                         Heavy_Atoms:                  30
##########                    Molecular_Weight:              413.56
##########                DOCK_Rotatable_Bonds:                   9
##########                       Formal_Charge:         2.38419e-07
##########                     HBond_Acceptors:                   6
##########                        HBond_Donors:                   2
##########                         Heavy_Atoms:                  30
##########                          Grid_Score:          -33.575573
##########                     Grid_vdw_energy:          -33.453449
##########                      Grid_es_energy:           -0.122123
##########           Internal_energy_repulsive:           13.325983

@<TRIPOS>MOLECULE
ZINC000464139057
 65 67 1 0 0
SMALL
USER_CHARGES


@<TRIPOS>ATOM
      1 C1          1.0136    1.1476   45.0932 C.3     1  ZINC000464139057   -0.1800
      2 C2          2.1234    0.8791   46.1115 C.3     1  ZINC000464139057    0.0700
      3 H3          3.0871    0.8576   45.6025 H       1  ZINC000464139057    0.1200
      4 C4          2.1276    1.9889   47.1690 C.3     1  ZINC000464139057    0.0800
      5 N5          0.8942    1.8773   47.9637 N.am    1  ZINC000464139057   -0.6100
      6 C6          0.1024    2.9483   48.1699 C.2     1  ZINC000464139057    0.5600
      7 O7          0.4030    4.0265   47.6964 O.2     1  ZINC000464139057   -0.5300
      8 C8         -1.1321    2.8115   48.9720 C.ar    1  ZINC000464139057   -0.1200
      9 C9         -2.3062    2.3464   48.3776 C.ar    1  ZINC000464139057   -0.0900
     10 C10        -3.4546    2.2206   49.1318 C.ar    1  ZINC000464139057   -0.1000
     11 C11        -3.4441    2.5548   50.4743 C.ar    1  ZINC000464139057   -0.0900
     12 C12        -4.7024    2.4153   51.2919 C.3     1  ZINC000464139057    0.1800
     13 N13        -5.3398    1.1309   50.9918 N.am    1  ZINC000464139057   -0.7400
     14 C14        -6.1854    0.5742   51.8815 C.2     1  ZINC000464139057    0.7000
     15 O15        -6.4204    1.1387   52.9324 O.2     1  ZINC000464139057   -0.5900
     16 N16        -6.7705   -0.6083   51.6062 N.am    1  ZINC000464139057   -0.7500
     17 C17        -7.6883   -1.2144   52.5740 C.3     1  ZINC000464139057    0.1400
     18 C18        -9.1167   -0.7504   52.2820 C.3     1  ZINC000464139057   -0.0900
     19 C19       -10.0008   -1.0749   53.4585 C.2     1  ZINC000464139057   -0.1200
     20 C20        -9.8483   -2.1961   54.0889 C.2     1  ZINC000464139057   -0.1500
     21 C21       -10.7295   -2.5345   55.2722 C.3     1  ZINC000464139057   -0.0900
     22 C22       -10.3217   -1.6515   56.4535 C.3     1  ZINC000464139057   -0.1100
     23 C23       -11.0359   -0.3127   56.3962 C.3     1  ZINC000464139057   -0.1200
     24 C24       -10.6204    0.5490   55.2170 C.3     1  ZINC000464139057   -0.1100
     25 C25       -11.0581   -0.0861   53.9009 C.3     1  ZINC000464139057   -0.0800
     26 C26        -2.2835    3.0161   51.0698 C.ar    1  ZINC000464139057   -0.1000
     27 C27        -1.1270    3.1414   50.3282 C.ar    1  ZINC000464139057   -0.0700
     28 C28         0.5507    0.5617   48.5264 C.3     1  ZINC000464139057    0.0700
     29 C29         0.6234   -0.4786   47.4028 C.3     1  ZINC000464139057    0.0700
     30 H30        -0.1727   -0.2923   46.6821 H       1  ZINC000464139057    0.0700
     31 C31         0.4604   -1.8807   47.9932 C.3     1  ZINC000464139057   -0.1500
     32 O32         1.8921   -0.3793   46.7493 O.3     1  ZINC000464139057   -0.3700
     33 H33         0.0502    1.1689   45.6028 H       1  ZINC000464139057    0.0600
     34 H34         1.1897    2.1079   44.6085 H       1  ZINC000464139057    0.0700
     35 H35         1.0101    0.3571   44.3426 H       1  ZINC000464139057    0.0700
     36 H36         2.9949    1.8735   47.8189 H       1  ZINC000464139057    0.0800
     37 H37         2.1620    2.9622   46.6795 H       1  ZINC000464139057    0.1000
     38 H38        -2.3158    2.0859   47.3295 H       1  ZINC000464139057    0.1300
     39 H39        -4.3637    1.8608   48.6731 H       1  ZINC000464139057    0.1300
     40 H40        -4.4535    2.4585   52.3522 H       1  ZINC000464139057    0.0800
     41 H41        -5.3872    3.2269   51.0461 H       1  ZINC000464139057    0.0800
     42 H42        -5.1533    0.6811   50.1529 H       1  ZINC000464139057    0.4000
     43 H43        -6.5840   -1.0581   50.7672 H       1  ZINC000464139057    0.4000
     44 H44        -7.6356   -2.3002   52.4941 H       1  ZINC000464139057    0.0700
     45 H45        -7.4064   -0.9100   53.5820 H       1  ZINC000464139057    0.0700
     46 H46        -9.1211    0.3261   52.1103 H       1  ZINC000464139057    0.0700
     47 H47        -9.4905   -1.2613   51.3947 H       1  ZINC000464139057    0.0800
     48 H48        -9.0884   -2.8934   53.7683 H       1  ZINC000464139057    0.1100
     49 H49       -11.7725   -2.3461   55.0174 H       1  ZINC000464139057    0.0700
     50 H50       -10.5990   -3.5837   55.5373 H       1  ZINC000464139057    0.0700
     51 H51       -10.5795   -2.1562   57.3846 H       1  ZINC000464139057    0.0600
     52 H52        -9.2449   -1.4854   56.4224 H       1  ZINC000464139057    0.0600
     53 H53       -12.1092   -0.4925   56.3356 H       1  ZINC000464139057    0.0600
     54 H54       -10.8282    0.2328   57.3168 H       1  ZINC000464139057    0.0600
     55 H55       -11.0802    1.5327   55.3117 H       1  ZINC000464139057    0.0600
     56 H56        -9.5359    0.6591   55.2174 H       1  ZINC000464139057    0.0600
     57 H57       -11.1748    0.6878   53.1422 H       1  ZINC000464139057    0.0700
     58 H58       -12.0044   -0.6080   54.0434 H       1  ZINC000464139057    0.0700
     59 H59        -2.2820    3.2749   52.1183 H       1  ZINC000464139057    0.1300
     60 H60        -0.2216    3.5013   50.7942 H       1  ZINC000464139057    0.1300
     61 H61         1.2593    0.3026   49.3131 H       1  ZINC000464139057    0.0800
     62 H62        -0.4591    0.5899   48.9359 H       1  ZINC000464139057    0.1000
     63 H63        -0.5050   -1.9541   48.4939 H       1  ZINC000464139057    0.0800
     64 H64         0.5122   -2.6198   47.1939 H       1  ZINC000464139057    0.0700
     65 H65         1.2578   -2.0670   48.7126 H       1  ZINC000464139057    0.0700
@<TRIPOS>BOND
     1     1     2    1
     2     1    33    1
     3     1    34    1
     4     1    35    1
     5     2     3    1
     6     2    32    1
     7     2     4    1
     8     4     5    1
     9     4    36    1
    10     4    37    1
    11     5     6   am
    12     5    28    1
    13     6     7    2
    14     6     8    1
    15     8    27   ar
    16     8     9   ar
    17     9    10   ar
    18     9    38    1
    19    10    11   ar
    20    10    39    1
    21    11    12    1
    22    11    26   ar
    23    12    13    1
    24    12    40    1
    25    12    41    1
    26    13    14   am
    27    13    42    1
    28    14    15    2
    29    14    16   am
    30    16    17    1
    31    16    43    1
    32    17    18    1
    33    17    44    1
    34    17    45    1
    35    18    19    1
    36    18    46    1
    37    18    47    1
    38    19    25    1
    39    19    20    2
    40    20    21    1
    41    20    48    1
    42    21    22    1
    43    21    49    1
    44    21    50    1
    45    22    23    1
    46    22    51    1
    47    22    52    1
    48    23    24    1
    49    23    53    1
    50    23    54    1
    51    24    25    1
    52    24    55    1
    53    24    56    1
    54    25    57    1
    55    25    58    1
    56    26    27   ar
    57    26    59    1
    58    27    60    1
    59    28    29    1
    60    28    61    1
    61    28    62    1
    62    29    30    1
    63    29    31    1
    64    29    32    1
    65    31    63    1
    66    31    64    1
    67    31    65    1
@<TRIPOS>SUBSTRUCTURE
     1 ZINC000464139057        1 TEMP              0 ****  ****    0 ROOT


##########                                Name:    ZINC001500042809
##########                DOCK_Rotatable_Bonds:                   9
##########                         Heavy_Atoms:                  24
##########                    Molecular_Weight:              346.45
##########                DOCK_Rotatable_Bonds:                   9
##########                       Formal_Charge:           0.0200001
##########                     HBond_Acceptors:                   6
##########                        HBond_Donors:                   2
##########                         Heavy_Atoms:                  24
##########                          Grid_Score:          -33.537502
##########                     Grid_vdw_energy:          -32.630833
##########                      Grid_es_energy:           -0.906670
##########           Internal_energy_repulsive:           18.130112

@<TRIPOS>MOLECULE
ZINC001500042809
 46 47 1 0 0
SMALL
USER_CHARGES


@<TRIPOS>ATOM
      1 C1         -1.7486   -0.0627   43.5503 C.3     1  ZINC001500042809    0.0200
      2 O2         -1.9612   -0.7701   44.7736 O.3     1  ZINC001500042809   -0.3100
      3 C3         -1.8842   -0.0515   45.9222 C.ar    1  ZINC001500042809    0.1600
      4 C4         -1.1461   -0.5369   46.9954 C.ar    1  ZINC001500042809   -0.1600
      5 C5         -1.0660    0.1891   48.1628 C.ar    1  ZINC001500042809   -0.0200
      6 C6         -1.7276    1.4154   48.2675 C.ar    1  ZINC001500042809   -0.1800
      7 C7         -1.6443    2.1967   49.5170 C.2     1  ZINC001500042809    0.5600
      8 O8         -0.5687    2.3648   50.0584 O.2     1  ZINC001500042809   -0.5300
      9 N9         -2.7606    2.7240   50.0577 N.am    1  ZINC001500042809   -0.7300
     10 C10        -2.6777    3.5010   51.2970 C.3     1  ZINC001500042809    0.1300
     11 C11        -3.6179    2.8965   52.3417 C.3     1  ZINC001500042809   -0.1200
     12 H12        -3.0843    2.1389   52.9157 H       1  ZINC001500042809    0.0900
     13 C13        -4.1094    3.9976   53.2834 C.3     1  ZINC001500042809   -0.1500
     14 C14        -4.8157    2.2542   51.6389 C.3     1  ZINC001500042809    0.1300
     15 N15        -5.7866    1.8058   52.6402 N.am    1  ZINC001500042809   -0.7300
     16 C16        -6.6192    0.7835   52.3610 C.2     1  ZINC001500042809    0.5900
     17 O17        -6.5636    0.2319   51.2776 O.2     1  ZINC001500042809   -0.5200
     18 C18        -7.5918    0.3360   53.3622 C.2     1  ZINC001500042809   -0.2800
     19 C19        -8.7030   -0.4172   53.1067 C.2     1  ZINC001500042809   -0.0100
     20 C20        -9.0799   -0.8967   51.7287 C.3     1  ZINC001500042809   -0.1100
     21 C21        -9.4424   -0.6945   54.2320 C.2     1  ZINC001500042809   -0.1500
     22 C22        -8.9556   -0.1868   55.3704 C.2     1  ZINC001500042809   -0.2200
     23 S23        -7.5117    0.6762   55.0854 S.3     1  ZINC001500042809    0.1900
     24 C24        -2.4729    1.8973   47.1882 C.ar    1  ZINC001500042809   -0.0400
     25 C25        -2.5441    1.1676   46.0226 C.ar    1  ZINC001500042809   -0.2200
     26 H26        -2.4942    0.7263   43.4526 H       1  ZINC001500042809    0.0600
     27 H27        -0.7516    0.3778   43.5539 H       1  ZINC001500042809    0.0600
     28 H28        -1.8379   -0.7528   42.7113 H       1  ZINC001500042809    0.1000
     29 H29        -0.6350   -1.4848   46.9137 H       1  ZINC001500042809    0.1400
     30 H30        -0.4928   -0.1891   48.9963 H       1  ZINC001500042809    0.1400
     31 H31        -3.6188    2.5890   49.6264 H       1  ZINC001500042809    0.4000
     32 H32        -2.9694    4.5325   51.0992 H       1  ZINC001500042809    0.0800
     33 H33        -1.6547    3.4782   51.6723 H       1  ZINC001500042809    0.0800
     34 H34        -3.2561    4.4552   53.7840 H       1  ZINC001500042809    0.0600
     35 H35        -4.6430    4.7552   52.7093 H       1  ZINC001500042809    0.0600
     36 H36        -4.7793    3.5670   54.0276 H       1  ZINC001500042809    0.0600
     37 H37        -5.2846    2.9847   50.9797 H       1  ZINC001500042809    0.0800
     38 H38        -4.4776    1.3999   51.0525 H       1  ZINC001500042809    0.0800
     39 H39        -5.8301    2.2447   53.5042 H       1  ZINC001500042809    0.4000
     40 H40        -8.6238   -1.8696   51.5451 H       1  ZINC001500042809    0.0800
     41 H41       -10.1641   -0.9847   51.6585 H       1  ZINC001500042809    0.0700
     42 H42        -8.7244   -0.1828   50.9857 H       1  ZINC001500042809    0.0900
     43 H43       -10.3500   -1.2789   54.1995 H       1  ZINC001500042809    0.1500
     44 H44        -9.4135   -0.3105   56.3407 H       1  ZINC001500042809    0.1700
     45 H45        -2.9893    2.8426   47.2669 H       1  ZINC001500042809    0.1300
     46 H46        -3.1172    1.5410   45.1869 H       1  ZINC001500042809    0.1400
@<TRIPOS>BOND
     1     1     2    1
     2     1    26    1
     3     1    27    1
     4     1    28    1
     5     2     3    1
     6     3    25   ar
     7     3     4   ar
     8     4     5   ar
     9     4    29    1
    10     5     6   ar
    11     5    30    1
    12     6     7    1
    13     6    24   ar
    14     7     8    2
    15     7     9   am
    16     9    10    1
    17     9    31    1
    18    10    11    1
    19    10    32    1
    20    10    33    1
    21    11    12    1
    22    11    13    1
    23    11    14    1
    24    13    34    1
    25    13    35    1
    26    13    36    1
    27    14    15    1
    28    14    37    1
    29    14    38    1
    30    15    16   am
    31    15    39    1
    32    16    17    2
    33    16    18    1
    34    18    23    1
    35    18    19    2
    36    19    20    1
    37    19    21    1
    38    20    40    1
    39    20    41    1
    40    20    42    1
    41    21    22    2
    42    21    43    1
    43    22    23    1
    44    22    44    1
    45    24    25   ar
    46    24    45    1
    47    25    46    1
@<TRIPOS>SUBSTRUCTURE
     1 ZINC001500042809        1 TEMP              0 ****  ****    0 ROOT


##########                                Name:    ZINC000011972961
##########                DOCK_Rotatable_Bonds:                   6
##########                         Heavy_Atoms:                  28
##########                    Molecular_Weight:             397.501
##########                DOCK_Rotatable_Bonds:                   6
##########                       Formal_Charge:                   0
##########                     HBond_Acceptors:                   8
##########                        HBond_Donors:                   1
##########                         Heavy_Atoms:                  28
##########                          Grid_Score:          -33.516499
##########                     Grid_vdw_energy:          -33.516499
##########                      Grid_es_energy:            0.000000
##########           Internal_energy_repulsive:           22.429972

@<TRIPOS>MOLECULE
ZINC000011972961
 51 54 1 0 0
SMALL
USER_CHARGES


@<TRIPOS>ATOM
      1 C1         -3.7329    1.6926   48.7737 C.3        0U=      0.0000
      2 C2         -2.3374    1.4729   49.2983 C.2        0U=      0.0000
      3 C3         -1.4297    0.7480   48.6323 C.2        0U=      0.0000
      4 C4         -1.6693    0.0916   47.3412 C.2        0U=      0.0000
      5 O5         -2.2119   -0.9969   47.3035 O.2        0U=      0.0000
      6 N6         -1.2883    0.6946   46.1977 N.am       0U=      0.0000
      7 C7         -1.5274    0.0395   44.9093 C.3        0U=      0.0000
      8 C8         -0.6350    2.0051   46.2431 C.3        0U=      0.0000
      9 H9         -0.7711    2.4645   47.2221 H          0U=      0.0000
     10 C10         0.8714    1.8715   45.9119 C.3        0U=      0.0000
     11 C11         0.9079    2.2476   44.4087 C.3        0U=      0.0000
     12 O12        -0.0766    3.2980   44.3002 O.3        0U=      0.0000
     13 C13        -1.1885    2.9223   45.1353 C.3        0U=      0.0000
     14 S14         0.0862    0.6911   49.5154 S.3        0U=      0.0000
     15 C15        -0.5724    1.6851   50.8078 C.ar       0U=      0.0000
     16 N16        -0.0244    2.1362   51.9419 N.ar       0U=      0.0000
     17 C17        -0.7125    2.8783   52.7790 C.ar       0U=      0.0000
     18 N18        -1.9685    3.2166   52.5509 N.ar       0U=      0.0000
     19 C19        -2.6000    2.8197   51.4565 C.ar       0U=      0.0000
     20 N20        -3.9129    3.1826   51.2342 N.pl3      0U=      0.0000
     21 C21        -4.7581    3.5982   52.3562 C.3        0U=      0.0000
     22 C22        -5.7897    2.5341   52.6291 C.ar       0U=      0.0000
     23 N23        -5.6243    1.3237   52.1331 N.ar       0U=      0.0000
     24 C24        -6.5004    0.3612   52.3463 C.ar       0U=      0.0000
     25 C25        -6.2638   -1.0053   51.7564 C.3        0U=      0.0000
     26 C26        -7.6325    0.5910   53.1044 C.ar       0U=      0.0000
     27 C27        -7.8408    1.8519   53.6427 C.ar       0U=      0.0000
     28 C28        -6.8956    2.8368   53.4011 C.ar       0U=      0.0000
     29 C29        -1.9014    2.0174   50.5106 C.ar       0U=      0.0000
     30 H30        -3.8548    2.7387   48.4923 H          0U=      0.0000
     31 H31        -3.8970    1.0602   47.9012 H          0U=      0.0000
     32 H32        -4.4565    1.4382   49.5482 H          0U=      0.0000
     33 H33        -2.6004   -0.0341   44.7327 H          0U=      0.0000
     34 H34        -1.0673    0.6249   44.1132 H          0U=      0.0000
     35 H35        -1.0921   -0.9598   44.9235 H          0U=      0.0000
     36 H36         1.4630    2.5710   46.5024 H          0U=      0.0000
     37 H37         1.2141    0.8481   46.0652 H          0U=      0.0000
     38 H38         1.8948    2.6162   44.1292 H          0U=      0.0000
     39 H39         0.6273    1.3935   43.7924 H          0U=      0.0000
     40 H40        -1.9301    2.3841   44.5450 H          0U=      0.0000
     41 H41        -1.6379    3.8119   45.5767 H          0U=      0.0000
     42 H42        -0.2354    3.2231   53.6843 H          0U=      0.0000
     43 H43        -4.2759    3.1625   50.3349 H          0U=      0.0000
     44 H44        -4.1405    3.7415   53.2429 H          0U=      0.0000
     45 H45        -5.2586    4.5340   52.1070 H          0U=      0.0000
     46 H46        -5.6960   -1.6121   52.4616 H          0U=      0.0000
     47 H47        -7.2217   -1.4844   51.5538 H          0U=      0.0000
     48 H48        -5.7026   -0.9077   50.8270 H          0U=      0.0000
     49 H49        -8.3463   -0.2013   53.2754 H          0U=      0.0000
     50 H50        -8.7167    2.0606   54.2392 H          0U=      0.0000
     51 H51        -7.0253    3.8300   53.8051 H          0U=      0.0000
@<TRIPOS>BOND
     1     1     2    1
     2     1    30    1
     3     1    31    1
     4     1    32    1
     5     2    29    1
     6     2     3    2
     7     3     4    1
     8     3    14    1
     9     4     5    2
    10     4     6   am
    11     6     7    1
    12     6     8    1
    13     7    33    1
    14     7    34    1
    15     7    35    1
    16     8     9    1
    17     8    13    1
    18     8    10    1
    19    10    11    1
    20    10    36    1
    21    10    37    1
    22    11    12    1
    23    11    38    1
    24    11    39    1
    25    12    13    1
    26    13    40    1
    27    13    41    1
    28    14    15    1
    29    15    29   ar
    30    15    16   ar
    31    16    17   ar
    32    17    18   ar
    33    17    42    1
    34    18    19   ar
    35    19    20    1
    36    19    29   ar
    37    20    21    1
    38    20    43    1
    39    21    22    1
    40    21    44    1
    41    21    45    1
    42    22    28   ar
    43    22    23   ar
    44    23    24   ar
    45    24    25    1
    46    24    26   ar
    47    25    46    1
    48    25    47    1
    49    25    48    1
    50    26    27   ar
    51    26    49    1
    52    27    28   ar
    53    27    50    1
    54    28    51    1
@<TRIPOS>SUBSTRUCTURE
     1 0U=        1 TEMP              0 ****  ****    0 ROOT


##########                                Name:    ZINC000809503567
##########                DOCK_Rotatable_Bonds:                   9
##########                         Heavy_Atoms:                  26
##########                    Molecular_Weight:             353.378
##########                DOCK_Rotatable_Bonds:                   9
##########                       Formal_Charge:          -0.0200002
##########                     HBond_Acceptors:                   7
##########                        HBond_Donors:                   1
##########                         Heavy_Atoms:                  26
##########                          Grid_Score:          -33.504890
##########                     Grid_vdw_energy:          -33.757027
##########                      Grid_es_energy:            0.252138
##########           Internal_energy_repulsive:           11.799761

@<TRIPOS>MOLECULE
ZINC000809503567
 45 46 1 0 0
SMALL
USER_CHARGES


@<TRIPOS>ATOM
      1 C1         -1.7460   -0.0803   44.4721 C.3     1  ZINC000809503567    0.0200
      2 O2         -1.9963   -0.6902   45.7399 O.3     1  ZINC000809503567   -0.3100
      3 C3         -1.9310    0.1115   46.8329 C.ar    1  ZINC000809503567    0.1900
      4 C4         -2.9016    1.0777   47.0464 C.ar    1  ZINC000809503567   -0.2100
      5 C5         -2.8340    1.8933   48.1593 C.ar    1  ZINC000809503567   -0.0200
      6 C6         -1.7989    1.7535   49.0685 C.ar    1  ZINC000809503567   -0.1500
      7 C7         -1.7368    2.6501   50.2782 C.3     1  ZINC000809503567    0.1700
      8 N8         -2.7937    2.2733   51.2201 N.am    1  ZINC000809503567   -0.7000
      9 C9         -3.8856    3.0518   51.3544 C.2     1  ZINC000809503567    0.5100
     10 O10        -3.9927    4.0656   50.6963 O.2     1  ZINC000809503567   -0.4900
     11 C11        -4.9646    2.6664   52.3140 C.2     1  ZINC000809503567    0.5100
     12 O12        -5.1247    3.3030   53.3346 O.2     1  ZINC000809503567   -0.5000
     13 N13        -5.7599    1.6119   52.0458 N.am    1  ZINC000809503567   -0.4600
     14 C14        -5.5679    0.8445   50.8127 C.3     1  ZINC000809503567    0.0800
     15 O15        -6.7811    1.2458   52.9558 O.3     1  ZINC000809503567   -0.1100
     16 C16        -7.1071   -0.1454   52.9348 C.3     1  ZINC000809503567    0.0800
     17 C17        -8.1573   -0.4310   53.9771 C.ar    1  ZINC000809503567   -0.0900
     18 C18        -8.2224    0.3406   55.1222 C.ar    1  ZINC000809503567   -0.1000
     19 C19        -9.1858    0.0785   56.0784 C.ar    1  ZINC000809503567   -0.1300
     20 C20       -10.0843   -0.9548   55.8893 C.ar    1  ZINC000809503567   -0.1100
     21 C21       -10.0197   -1.7259   54.7437 C.ar    1  ZINC000809503567   -0.1300
     22 C22        -9.0591   -1.4611   53.7856 C.ar    1  ZINC000809503567   -0.0800
     23 C23        -0.8252    0.7975   48.8722 C.ar    1  ZINC000809503567   -0.0100
     24 C24        -0.8847   -0.0376   47.7541 C.ar    1  ZINC000809503567   -0.0600
     25 C25         0.1233   -1.0327   47.5440 C.1     1  ZINC000809503567    0.2600
     26 N26         0.9231   -1.8222   47.3774 N.1     1  ZINC000809503567   -0.4100
     27 H27        -0.7418    0.3436   44.4647 H       1  ZINC000809503567    0.0600
     28 H28        -1.8295   -0.8301   43.6853 H       1  ZINC000809503567    0.1100
     29 H29        -2.4756    0.7108   44.2990 H       1  ZINC000809503567    0.0600
     30 H30        -3.7116    1.1934   46.3416 H       1  ZINC000809503567    0.1400
     31 H31        -3.5928    2.6446   48.3212 H       1  ZINC000809503567    0.1400
     32 H32        -0.7651    2.5429   50.7605 H       1  ZINC000809503567    0.0900
     33 H33        -1.8771    3.6862   49.9701 H       1  ZINC000809503567    0.0900
     34 H34        -2.7076    1.4635   51.7471 H       1  ZINC000809503567    0.4100
     35 H35        -4.8626    0.0338   50.9954 H       1  ZINC000809503567    0.0800
     36 H36        -6.5229    0.4294   50.4906 H       1  ZINC000809503567    0.0800
     37 H37        -5.1754    1.4992   50.0347 H       1  ZINC000809503567    0.0900
     38 H38        -7.4899   -0.4139   51.9501 H       1  ZINC000809503567    0.0700
     39 H39        -6.2134   -0.7313   53.1493 H       1  ZINC000809503567    0.0600
     40 H40        -7.5205    1.1479   55.2700 H       1  ZINC000809503567    0.1200
     41 H41        -9.2363    0.6810   56.9733 H       1  ZINC000809503567    0.1200
     42 H42       -10.8364   -1.1600   56.6366 H       1  ZINC000809503567    0.1200
     43 H43       -10.7215   -2.5335   54.5961 H       1  ZINC000809503567    0.1200
     44 H44        -9.0086   -2.0635   52.8906 H       1  ZINC000809503567    0.1300
     45 H45        -0.0196    0.6919   49.5838 H       1  ZINC000809503567    0.1400
@<TRIPOS>BOND
     1     1     2    1
     2     1    27    1
     3     1    28    1
     4     1    29    1
     5     2     3    1
     6     3    24   ar
     7     3     4   ar
     8     4     5   ar
     9     4    30    1
    10     5     6   ar
    11     5    31    1
    12     6     7    1
    13     6    23   ar
    14     7     8    1
    15     7    32    1
    16     7    33    1
    17     8     9   am
    18     8    34    1
    19     9    10    2
    20     9    11    1
    21    11    12    2
    22    11    13   am
    23    13    14    1
    24    13    15    1
    25    14    35    1
    26    14    36    1
    27    14    37    1
    28    15    16    1
    29    16    17    1
    30    16    38    1
    31    16    39    1
    32    17    22   ar
    33    17    18   ar
    34    18    19   ar
    35    18    40    1
    36    19    20   ar
    37    19    41    1
    38    20    21   ar
    39    20    42    1
    40    21    22   ar
    41    21    43    1
    42    22    44    1
    43    23    24   ar
    44    23    45    1
    45    24    25    1
    46    25    26    3
@<TRIPOS>SUBSTRUCTURE
     1 ZINC000809503567        1 TEMP              0 ****  ****    0 ROOT


##########                                Name:    ZINC000826435081
##########                DOCK_Rotatable_Bonds:                   7
##########                         Heavy_Atoms:                  28
##########                    Molecular_Weight:             388.361
##########                DOCK_Rotatable_Bonds:                   7
##########                       Formal_Charge:           0.0099996
##########                     HBond_Acceptors:                  12
##########                        HBond_Donors:                   3
##########                         Heavy_Atoms:                  28
##########                          Grid_Score:          -33.500309
##########                     Grid_vdw_energy:          -28.350718
##########                      Grid_es_energy:           -5.149592
##########           Internal_energy_repulsive:           15.696832

@<TRIPOS>MOLECULE
ZINC000826435081
 45 48 1 0 0
SMALL
USER_CHARGES


@<TRIPOS>ATOM
      1 O1         -5.3506    0.4393   50.9725 O.2     1  ZINC000826435081   -0.5700
      2 C2         -5.3676    1.2103   51.9126 C.2     1  ZINC000826435081    0.7200
      3 N3         -6.2683    1.0471   52.9018 N.am    1  ZINC000826435081   -0.7300
      4 C4         -7.2309   -0.0555   52.8414 C.3     1  ZINC000826435081    0.1500
      5 C5         -8.5341    0.4390   52.2106 C.3     1  ZINC000826435081    0.0400
      6 H6         -8.3336    0.8143   51.2071 H       1  ZINC000826435081    0.0800
      7 C7         -9.1241    1.5620   53.0686 C.3     1  ZINC000826435081    0.0300
      8 O8        -10.3960    1.9418   52.5347 O.3     1  ZINC000826435081   -0.3800
      9 C9        -11.3330    0.8628   52.4647 C.3     1  ZINC000826435081    0.0200
     10 C10       -10.7430   -0.2601   51.6066 C.3     1  ZINC000826435081    0.0200
     11 O11        -9.4706   -0.6403   52.1392 O.3     1  ZINC000826435081   -0.3700
     12 N12        -4.4819    2.2247   51.9682 N.am    1  ZINC000826435081   -0.6400
     13 C13        -3.5455    2.3944   50.9398 C.2     1  ZINC000826435081    0.3300
     14 N14        -3.4726    1.6819   49.8402 N.2     1  ZINC000826435081   -0.2800
     15 N15        -2.4040    2.1660   49.0747 N.pl3   1  ZINC000826435081   -0.3300
     16 C16        -1.9939    1.6749   47.8302 C.ar    1  ZINC000826435081    0.2200
     17 C17        -2.7161    1.9847   46.6874 C.ar    1  ZINC000826435081   -0.1300
     18 C18        -2.3107    1.4995   45.4586 C.ar    1  ZINC000826435081   -0.0500
     19 C19        -1.1845    0.7027   45.3590 C.ar    1  ZINC000826435081   -0.1500
     20 C20        -0.4540    0.3851   46.4896 C.ar    1  ZINC000826435081    0.1500
     21 F21         0.6456   -0.3931   46.3881 F       1  ZINC000826435081   -0.1100
     22 C22        -0.8506    0.8745   47.7334 C.ar    1  ZINC000826435081   -0.0500
     23 C23        -0.0714    0.5375   48.9501 C.2     1  ZINC000826435081    0.2100
     24 N24        -0.0092   -0.6373   49.5454 N.2     1  ZINC000826435081   -0.2800
     25 N25         0.7699   -0.5216   50.5653 N.pl3   1  ZINC000826435081   -0.2300
     26 N26         1.2033    0.6885   50.6354 N.2     1  ZINC000826435081   -0.0500
     27 N27         0.7115    1.3671   49.6550 N.2     1  ZINC000826435081   -0.2300
     28 C28        -1.8364    3.1960   49.7537 C.2     1  ZINC000826435081    0.0700
     29 C29        -2.5265    3.3607   50.9050 C.2     1  ZINC000826435081   -0.2400
     30 H30        -6.2791    1.6597   53.6538 H       1  ZINC000826435081    0.4000
     31 H31        -6.8193   -0.8646   52.2379 H       1  ZINC000826435081    0.0800
     32 H32        -7.4303   -0.4195   53.8494 H       1  ZINC000826435081    0.0900
     33 H33        -9.2493    1.2105   54.0927 H       1  ZINC000826435081    0.0700
     34 H34        -8.4529    2.4207   53.0566 H       1  ZINC000826435081    0.1100
     35 H35       -11.5324    0.4877   53.4684 H       1  ZINC000826435081    0.0600
     36 H36       -12.2614    1.2151   52.0152 H       1  ZINC000826435081    0.1100
     37 H37       -11.4142   -1.1188   51.6186 H       1  ZINC000826435081    0.1100
     38 H38       -10.6178    0.0914   50.5825 H       1  ZINC000826435081    0.0600
     39 H39        -4.4928    2.8374   52.7201 H       1  ZINC000826435081    0.4100
     40 H40        -3.5968    2.6057   46.7580 H       1  ZINC000826435081    0.1500
     41 H41        -2.8764    1.7434   44.5715 H       1  ZINC000826435081    0.1500
     42 H42        -0.8748    0.3269   44.3950 H       1  ZINC000826435081    0.1500
     43 H43         0.9945   -1.2346   51.1834 H       1  ZINC000826435081    0.4800
     44 H44        -0.9888    3.7820   49.4301 H       1  ZINC000826435081    0.1800
     45 H45        -2.3251    4.0994   51.6666 H       1  ZINC000826435081    0.1800
@<TRIPOS>BOND
     1     1     2    2
     2     2     3   am
     3     2    12   am
     4     3     4    1
     5     3    30    1
     6     4     5    1
     7     4    31    1
     8     4    32    1
     9     5     6    1
    10     5    11    1
    11     5     7    1
    12     7     8    1
    13     7    33    1
    14     7    34    1
    15     8     9    1
    16     9    10    1
    17     9    35    1
    18     9    36    1
    19    10    11    1
    20    10    37    1
    21    10    38    1
    22    12    13    1
    23    12    39    1
    24    13    29    1
    25    13    14    2
    26    14    15    1
    27    15    16    1
    28    15    28    1
    29    16    22   ar
    30    16    17   ar
    31    17    18   ar
    32    17    40    1
    33    18    19   ar
    34    18    41    1
    35    19    20   ar
    36    19    42    1
    37    20    21    1
    38    20    22   ar
    39    22    23    1
    40    23    27    1
    41    23    24    2
    42    24    25    1
    43    25    26    1
    44    25    43    1
    45    26    27    2
    46    28    29    2
    47    28    44    1
    48    29    45    1
@<TRIPOS>SUBSTRUCTURE
     1 ZINC000826435081        1 TEMP              0 ****  ****    0 ROOT


##########                                Name:    ZINC001574157642
##########                DOCK_Rotatable_Bonds:                   9
##########                         Heavy_Atoms:                  28
##########                    Molecular_Weight:             387.445
##########                DOCK_Rotatable_Bonds:                   9
##########                       Formal_Charge:          -0.0400004
##########                     HBond_Acceptors:                  11
##########                        HBond_Donors:                   4
##########                         Heavy_Atoms:                  28
##########                          Grid_Score:          -33.491150
##########                     Grid_vdw_energy:          -32.309620
##########                      Grid_es_energy:           -1.181530
##########           Internal_energy_repulsive:           18.324190

@<TRIPOS>MOLECULE
ZINC001574157642
 53 55 1 0 0
SMALL
USER_CHARGES


@<TRIPOS>ATOM
      1 C1          0.0272    1.2797   45.3141 C.3     1  ZINC001574157642   -0.1400
      2 C2         -1.0531    2.1114   46.0085 C.3     1  ZINC001574157642   -0.0900
      3 C3         -1.7583    2.9947   44.9773 C.3     1  ZINC001574157642   -0.1500
      4 C4         -2.0732    1.1779   46.6632 C.3     1  ZINC001574157642   -0.1300
      5 C5         -2.0832    1.4132   48.1751 C.3     1  ZINC001574157642    0.1300
      6 H6         -2.6166    0.5992   48.6660 H       1  ZINC001574157642    0.1100
      7 C7         -2.7831    2.7390   48.4804 C.3     1  ZINC001574157642    0.1100
      8 N8         -2.8550    2.9306   49.9309 N.pl3   1  ZINC001574157642   -0.7100
      9 C9         -3.8751    2.3333   50.6609 C.ar    1  ZINC001574157642    0.3700
     10 C10        -4.7205    1.4092   50.0491 C.ar    1  ZINC001574157642    0.0000
     11 N11        -5.6889    0.8424   50.7410 N.ar    1  ZINC001574157642   -0.3700
     12 C12        -5.8592    1.1520   52.0233 C.ar    1  ZINC001574157642    0.0800
     13 C13        -6.9489    0.5138   52.8025 C.2     1  ZINC001574157642    0.2300
     14 N14        -7.2259    0.7110   54.0764 N.2     1  ZINC001574157642   -0.2700
     15 N15        -8.2405   -0.0242   54.3776 N.pl3   1  ZINC001574157642   -0.2300
     16 N16        -8.6151   -0.6810   53.3356 N.2     1  ZINC001574157642   -0.0400
     17 N17        -7.8471   -0.3712   52.3468 N.2     1  ZINC001574157642   -0.2600
     18 C18        -5.0140    2.0752   52.6345 C.ar    1  ZINC001574157642    0.1600
     19 N19        -4.0411    2.6388   51.9420 N.ar    1  ZINC001574157642   -0.5000
     20 N20        -0.7054    1.4630   48.6706 N.am    1  ZINC001574157642   -0.7300
     21 C21        -0.0248    0.3196   48.8852 C.2     1  ZINC001574157642    0.5200
     22 O22        -0.5534   -0.7504   48.6696 O.2     1  ZINC001574157642   -0.5100
     23 C23         1.3931    0.3708   49.3932 C.3     1  ZINC001574157642   -0.1300
     24 H24         1.7394   -0.6390   49.6132 H       1  ZINC001574157642    0.1100
     25 C25         1.4532    1.2240   50.6659 C.3     1  ZINC001574157642   -0.1000
     26 C26         2.8596    1.1096   51.2592 C.3     1  ZINC001574157642   -0.1400
     27 C27         3.8864    1.3421   50.1883 C.2     1  ZINC001574157642    0.5200
     28 O28         5.0198    1.6087   50.5280 O.2     1  ZINC001574157642   -0.5500
     29 N29         3.6188    1.2707   48.8838 N.am    1  ZINC001574157642   -0.7200
     30 C30         2.2955    1.0030   48.3328 C.3     1  ZINC001574157642    0.1200
     31 H31        -0.4324    0.6513   44.5512 H       1  ZINC001574157642    0.0400
     32 H32         0.7540    1.9448   44.8477 H       1  ZINC001574157642    0.0500
     33 H33         0.5296    0.6505   46.0488 H       1  ZINC001574157642    0.0700
     34 H34        -0.5935    2.7397   46.7715 H       1  ZINC001574157642    0.0700
     35 H35        -2.2179    2.3663   44.2144 H       1  ZINC001574157642    0.0500
     36 H36        -2.5279    3.5872   45.4720 H       1  ZINC001574157642    0.0500
     37 H37        -1.0315    3.6597   44.5109 H       1  ZINC001574157642    0.0500
     38 H38        -3.0643    1.3809   46.2575 H       1  ZINC001574157642    0.0700
     39 H39        -1.8019    0.1423   46.4586 H       1  ZINC001574157642    0.0800
     40 H40        -2.2203    3.5584   48.0330 H       1  ZINC001574157642    0.0800
     41 H41        -3.7911    2.7216   48.0657 H       1  ZINC001574157642    0.0900
     42 H42        -2.1903    3.4745   50.3819 H       1  ZINC001574157642    0.4100
     43 H43        -4.5822    1.1577   49.0080 H       1  ZINC001574157642    0.1700
     44 H44        -8.6564   -0.0752   55.2524 H       1  ZINC001574157642    0.4800
     45 H45        -5.1521    2.3273   53.6756 H       1  ZINC001574157642    0.1800
     46 H46        -0.2830    2.3187   48.8442 H       1  ZINC001574157642    0.4000
     47 H47         1.2421    2.2648   50.4203 H       1  ZINC001574157642    0.0800
     48 H48         0.7203    0.8606   51.3863 H       1  ZINC001574157642    0.0900
     49 H49         2.9823    1.8537   52.0462 H       1  ZINC001574157642    0.1100
     50 H50         2.9949    0.1133   51.6803 H       1  ZINC001574157642    0.1000
     51 H51         4.3511    1.4031   48.2617 H       1  ZINC001574157642    0.4000
     52 H52         2.3893    0.3266   47.4832 H       1  ZINC001574157642    0.0800
     53 H53         1.8492    1.9389   47.9968 H       1  ZINC001574157642    0.0700
@<TRIPOS>BOND
     1     1     2    1
     2     1    31    1
     3     1    32    1
     4     1    33    1
     5     2     3    1
     6     2     4    1
     7     2    34    1
     8     3    35    1
     9     3    36    1
    10     3    37    1
    11     4     5    1
    12     4    38    1
    13     4    39    1
    14     5     6    1
    15     5     7    1
    16     5    20    1
    17     7     8    1
    18     7    40    1
    19     7    41    1
    20     8     9    1
    21     8    42    1
    22     9    19   ar
    23     9    10   ar
    24    10    11   ar
    25    10    43    1
    26    11    12   ar
    27    12    13    1
    28    12    18   ar
    29    13    17    1
    30    13    14    2
    31    14    15    1
    32    15    16    1
    33    15    44    1
    34    16    17    2
    35    18    19   ar
    36    18    45    1
    37    20    21   am
    38    20    46    1
    39    21    22    2
    40    21    23    1
    41    23    24    1
    42    23    30    1
    43    23    25    1
    44    25    26    1
    45    25    47    1
    46    25    48    1
    47    26    27    1
    48    26    49    1
    49    26    50    1
    50    27    28    2
    51    27    29   am
    52    29    30    1
    53    29    51    1
    54    30    52    1
    55    30    53    1
@<TRIPOS>SUBSTRUCTURE
     1 ZINC001574157642        1 TEMP              0 ****  ****    0 ROOT


##########                                Name:    ZINC000439870054
##########                DOCK_Rotatable_Bonds:                   5
##########                         Heavy_Atoms:                  27
##########                    Molecular_Weight:             421.974
##########                DOCK_Rotatable_Bonds:                   5
##########                       Formal_Charge:           0.0200003
##########                     HBond_Acceptors:                   9
##########                        HBond_Donors:                   0
##########                         Heavy_Atoms:                  27
##########                          Grid_Score:          -33.473133
##########                     Grid_vdw_energy:          -32.734501
##########                      Grid_es_energy:           -0.738632
##########           Internal_energy_repulsive:           61.285400

@<TRIPOS>MOLECULE
ZINC000439870054
 47 50 1 0 0
SMALL
USER_CHARGES


@<TRIPOS>ATOM
      1 C1          2.9338    2.6611   43.6746 C.3     1  ZINC000439870054   -0.1400
      2 C2          1.8237    1.6243   43.4914 C.3     1  ZINC000439870054    0.0000
      3 C3          2.2196    0.6431   42.3861 C.3     1  ZINC000439870054   -0.1400
      4 C4          1.6206    0.8723   44.7815 C.2     1  ZINC000439870054    0.1900
      5 N5          2.5164    0.1595   45.4147 N.2     1  ZINC000439870054   -0.2900
      6 N6          1.9973   -0.3439   46.4821 N.2     1  ZINC000439870054   -0.2700
      7 C7          0.7562    0.0226   46.5725 C.2     1  ZINC000439870054    0.1600
      8 C8         -0.2554   -0.3262   47.6375 C.3     1  ZINC000439870054    0.2400
      9 H9         -0.5442   -1.3734   47.5475 H       1  ZINC000439870054    0.1100
     10 C10         0.3355   -0.0652   49.0244 C.3     1  ZINC000439870054   -0.1300
     11 N11        -1.4287    0.5404   47.4170 N.am    1  ZINC000439870054   -0.6300
     12 C12        -2.0520    1.1394   48.4509 C.2     1  ZINC000439870054    0.5300
     13 O13        -1.6496    0.9694   49.5823 O.2     1  ZINC000439870054   -0.4900
     14 C14        -3.2488    2.0205   48.2012 C.3     1  ZINC000439870054   -0.0700
     15 C15        -3.6993    2.6361   49.5009 C.2     1  ZINC000439870054    0.0900
     16 C16        -3.2509    3.8244   49.9158 C.2     1  ZINC000439870054   -0.2400
     17 S17        -4.0073    4.1906   51.4649 S.3     1  ZINC000439870054    0.1300
     18 C18        -4.8779    2.6604   51.3967 C.2     1  ZINC000439870054    0.1400
     19 C19        -5.8153    2.1652   52.4163 C.2     1  ZINC000439870054   -0.1300
     20 C20        -6.1727    2.8306   53.5363 C.2     1  ZINC000439870054   -0.1000
     21 C21        -7.0685    2.1616   54.3421 C.2     1  ZINC000439870054   -0.1200
     22 C22        -7.4463    0.9586   53.8931 C.2     1  ZINC000439870054   -0.1500
     23 Cl23       -8.5596   -0.1031   54.6975 Cl      1  ZINC000439870054    0.0000
     24 S24        -6.6505    0.6181   52.3623 S.3     1  ZINC000439870054    0.2500
     25 N25        -4.5614    2.0398   50.2932 N.2     1  ZINC000439870054   -0.4400
     26 C26        -1.8986    0.7325   46.0366 C.3     1  ZINC000439870054    0.0900
     27 C27        -0.8073    1.4405   45.2251 C.3     1  ZINC000439870054    0.0900
     28 N28         0.4837    0.8125   45.5029 N.pl3   1  ZINC000439870054   -0.4700
     29 H29         3.0807    3.2049   42.7415 H       1  ZINC000439870054    0.0700
     30 H30         2.6518    3.3601   44.4621 H       1  ZINC000439870054    0.0500
     31 H31         3.8598    2.1568   43.9509 H       1  ZINC000439870054    0.0700
     32 H32         0.8977    2.1284   43.2150 H       1  ZINC000439870054    0.0800
     33 H33         1.4288   -0.0956   42.2555 H       1  ZINC000439870054    0.0500
     34 H34         2.3664    1.1870   41.4529 H       1  ZINC000439870054    0.0700
     35 H35         3.1456    0.1390   42.6624 H       1  ZINC000439870054    0.0700
     36 H36         0.4670    1.0073   49.1674 H       1  ZINC000439870054    0.0600
     37 H37        -0.3406   -0.4532   49.7864 H       1  ZINC000439870054    0.0900
     38 H38         1.3012   -0.5640   49.1077 H       1  ZINC000439870054    0.0700
     39 H39        -2.9788    2.8099   47.4996 H       1  ZINC000439870054    0.1100
     40 H40        -4.0585    1.4232   47.7821 H       1  ZINC000439870054    0.1200
     41 H41        -2.5456    4.4525   49.3919 H       1  ZINC000439870054    0.1800
     42 H42        -5.7867    3.8090   53.7811 H       1  ZINC000439870054    0.1500
     43 H43        -7.4381    2.5772   55.2678 H       1  ZINC000439870054    0.1600
     44 H44        -2.1151   -0.2368   45.5876 H       1  ZINC000439870054    0.0900
     45 H45        -2.8021    1.3422   46.0413 H       1  ZINC000439870054    0.1200
     46 H46        -1.0333    1.3591   44.1619 H       1  ZINC000439870054    0.1100
     47 H47        -0.7657    2.4919   45.5100 H       1  ZINC000439870054    0.0900
@<TRIPOS>BOND
     1     1     2    1
     2     1    29    1
     3     1    30    1
     4     1    31    1
     5     2     3    1
     6     2     4    1
     7     2    32    1
     8     3    33    1
     9     3    34    1
    10     3    35    1
    11     4    28    1
    12     4     5    2
    13     5     6    1
    14     6     7    2
    15     7    28    1
    16     7     8    1
    17     8     9    1
    18     8    10    1
    19     8    11    1
    20    10    36    1
    21    10    37    1
    22    10    38    1
    23    11    12   am
    24    11    26    1
    25    12    13    2
    26    12    14    1
    27    14    15    1
    28    14    39    1
    29    14    40    1
    30    15    25    1
    31    15    16    2
    32    16    17    1
    33    16    41    1
    34    17    18    1
    35    18    19    1
    36    18    25    2
    37    19    24    1
    38    19    20    2
    39    20    21    1
    40    20    42    1
    41    21    22    2
    42    21    43    1
    43    22    23    1
    44    22    24    1
    45    26    27    1
    46    26    44    1
    47    26    45    1
    48    27    28    1
    49    27    46    1
    50    27    47    1
@<TRIPOS>SUBSTRUCTURE
     1 ZINC000439870054        1 TEMP              0 ****  ****    0 ROOT


##########                                Name:    ZINC000583220082
##########                DOCK_Rotatable_Bonds:                   9
##########                         Heavy_Atoms:                  29
##########                    Molecular_Weight:             417.492
##########                DOCK_Rotatable_Bonds:                   9
##########                       Formal_Charge:          -0.0400006
##########                     HBond_Acceptors:                  11
##########                        HBond_Donors:                   3
##########                         Heavy_Atoms:                  29
##########                          Grid_Score:          -33.472965
##########                     Grid_vdw_energy:          -33.145016
##########                      Grid_es_energy:           -0.327948
##########           Internal_energy_repulsive:           17.761328

@<TRIPOS>MOLECULE
ZINC000583220082
 52 54 1 0 0
SMALL
USER_CHARGES


@<TRIPOS>ATOM
      1 C1        -11.4754   -2.7146   56.5008 C.3     1  ZINC000583220082    0.0800
      2 N2        -11.5023   -1.8099   55.3489 N.am    1  ZINC000583220082   -0.6300
      3 C3        -12.5567   -0.7992   55.2357 C.3     1  ZINC000583220082    0.0800
      4 C4        -10.5569   -1.9074   54.3932 C.2     1  ZINC000583220082    0.5100
      5 O5         -9.6831   -2.7433   54.4877 O.2     1  ZINC000583220082   -0.5300
      6 C6        -10.5856   -0.9781   53.2074 C.3     1  ZINC000583220082   -0.1000
      7 C7         -9.1851   -0.5158   52.8973 C.ar    1  ZINC000583220082   -0.0800
      8 C8         -8.6760   -0.6662   51.6203 C.ar    1  ZINC000583220082   -0.0800
      9 C9         -7.3930   -0.2437   51.3327 C.ar    1  ZINC000583220082   -0.1400
     10 C10        -6.6140    0.3334   52.3277 C.ar    1  ZINC000583220082    0.1400
     11 N11        -5.3157    0.7624   52.0401 N.am    1  ZINC000583220082   -0.6400
     12 C12        -4.9826    2.0582   52.2025 C.2     1  ZINC000583220082    0.5100
     13 O13        -5.8104    2.8526   52.5988 O.2     1  ZINC000583220082   -0.4900
     14 C14        -3.5948    2.5167   51.8951 C.2     1  ZINC000583220082    0.5100
     15 O15        -2.8130    2.7325   52.7979 O.2     1  ZINC000583220082   -0.5100
     16 N16        -3.2106    2.6907   50.6150 N.am    1  ZINC000583220082   -0.5800
     17 C17        -1.8469    3.1355   50.2899 C.3     1  ZINC000583220082    0.0600
     18 C18        -1.2568    2.1765   49.2506 C.3     1  ZINC000583220082    0.0300
     19 N19        -2.1692    2.0811   48.1033 N.3     1  ZINC000583220082   -0.4300
     20 C20        -1.5983    1.3534   47.0754 C.2     1  ZINC000583220082    0.2900
     21 N21        -1.7068    1.5744   45.7823 N.2     1  ZINC000583220082   -0.5700
     22 C22        -1.0697    0.7438   44.9830 C.2     1  ZINC000583220082    0.5400
     23 N23        -1.1215    0.8927   43.5977 N.pl3   1  ZINC000583220082   -0.8200
     24 N24        -0.3873   -0.2243   45.5341 N.2     1  ZINC000583220082   -0.5500
     25 S25        -0.5855   -0.0335   47.2109 S.3     1  ZINC000583220082    0.2000
     26 C26        -3.4634    1.5089   48.4977 C.3     1  ZINC000583220082    0.0500
     27 C27        -4.1421    2.4348   49.5059 C.3     1  ZINC000583220082    0.1100
     28 C28        -7.1289    0.4833   53.6094 C.ar    1  ZINC000583220082   -0.1200
     29 C29        -8.4142    0.0629   53.8888 C.ar    1  ZINC000583220082   -0.0800
     30 H30       -12.0559   -3.6089   56.2741 H       1  ZINC000583220082    0.0500
     31 H31       -10.4449   -2.9958   56.7181 H       1  ZINC000583220082    0.0800
     32 H32       -11.9053   -2.2123   57.3674 H       1  ZINC000583220082    0.0700
     33 H33       -13.2235   -0.8719   56.0950 H       1  ZINC000583220082    0.0800
     34 H34       -12.1070    0.1934   55.2078 H       1  ZINC000583220082    0.0600
     35 H35       -13.1240   -0.9669   54.3203 H       1  ZINC000583220082    0.0600
     36 H36       -10.9944   -1.5031   52.3441 H       1  ZINC000583220082    0.1000
     37 H37       -11.2105   -0.1150   53.4371 H       1  ZINC000583220082    0.1000
     38 H38        -9.2821   -1.1148   50.8472 H       1  ZINC000583220082    0.1300
     39 H39        -6.9957   -0.3620   50.3355 H       1  ZINC000583220082    0.1300
     40 H40        -4.6541    0.1276   51.7235 H       1  ZINC000583220082    0.4200
     41 H41        -1.8790    4.1450   49.8799 H       1  ZINC000583220082    0.0900
     42 H42        -1.2331    3.1224   51.1904 H       1  ZINC000583220082    0.1700
     43 H43        -0.2899    2.5526   48.9162 H       1  ZINC000583220082    0.1100
     44 H44        -1.1293    1.1902   49.6968 H       1  ZINC000583220082    0.0700
     45 H45        -1.9750    1.0223   43.1555 H       1  ZINC000583220082    0.4200
     46 H46        -0.3040    0.8667   43.0763 H       1  ZINC000583220082    0.4200
     47 H47        -4.0968    1.4010   47.6172 H       1  ZINC000583220082    0.1100
     48 H48        -3.3051    0.5320   48.9544 H       1  ZINC000583220082    0.0600
     49 H49        -5.0465    1.9608   49.8872 H       1  ZINC000583220082    0.1100
     50 H50        -4.3955    3.3787   49.0233 H       1  ZINC000583220082    0.0900
     51 H51        -6.5259    0.9315   54.3853 H       1  ZINC000583220082    0.1400
     52 H52        -8.8152    0.1792   54.8849 H       1  ZINC000583220082    0.1300
@<TRIPOS>BOND
     1     1     2    1
     2     1    30    1
     3     1    31    1
     4     1    32    1
     5     2     3    1
     6     2     4   am
     7     3    33    1
     8     3    34    1
     9     3    35    1
    10     4     5    2
    11     4     6    1
    12     6     7    1
    13     6    36    1
    14     6    37    1
    15     7    29   ar
    16     7     8   ar
    17     8     9   ar
    18     8    38    1
    19     9    10   ar
    20     9    39    1
    21    10    11    1
    22    10    28   ar
    23    11    12   am
    24    11    40    1
    25    12    13    2
    26    12    14    1
    27    14    15    2
    28    14    16   am
    29    16    27    1
    30    16    17    1
    31    17    18    1
    32    17    41    1
    33    17    42    1
    34    18    19    1
    35    18    43    1
    36    18    44    1
    37    19    20    1
    38    19    26    1
    39    20    25    1
    40    20    21    2
    41    21    22    1
    42    22    23    1
    43    22    24    2
    44    23    45    1
    45    23    46    1
    46    24    25    1
    47    26    27    1
    48    26    47    1
    49    26    48    1
    50    27    49    1
    51    27    50    1
    52    28    29   ar
    53    28    51    1
    54    29    52    1
@<TRIPOS>SUBSTRUCTURE
     1 ZINC000583220082        1 TEMP              0 ****  ****    0 ROOT


##########                                Name:    ZINC000151820600
##########                DOCK_Rotatable_Bonds:                  10
##########                         Heavy_Atoms:                  25
##########                    Molecular_Weight:             388.915
##########                DOCK_Rotatable_Bonds:                  10
##########                       Formal_Charge:           0.0499998
##########                     HBond_Acceptors:                   8
##########                        HBond_Donors:                   2
##########                         Heavy_Atoms:                  25
##########                          Grid_Score:          -33.472748
##########                     Grid_vdw_energy:          -31.352201
##########                      Grid_es_energy:           -2.120546
##########           Internal_energy_repulsive:           17.564650

@<TRIPOS>MOLECULE
ZINC000151820600
 50 50 1 0 0
SMALL
USER_CHARGES


@<TRIPOS>ATOM
      1 C1          4.3192    0.8603   50.8477 C.3     1  ZINC000151820600   -0.4900
      2 S2          2.5900    1.1304   50.3707 S.o     1  ZINC000151820600    1.2500
      3 O3          2.5244    1.4476   48.9870 O.2     1  ZINC000151820600   -0.8500
      4 C4          2.1197    2.5848   51.3474 C.3     1  ZINC000151820600   -0.4500
      5 C5          0.6626    2.9471   51.0533 C.3     1  ZINC000151820600   -0.1100
      6 C6         -0.2589    1.8856   51.6576 C.3     1  ZINC000151820600    0.1200
      7 N7         -1.5123    1.8389   50.9007 N.am    1  ZINC000151820600   -0.7200
      8 C8         -2.5043    2.7056   51.1855 C.2     1  ZINC000151820600    0.5200
      9 O9         -2.3598    3.5234   52.0695 O.2     1  ZINC000151820600   -0.5200
     10 C10        -3.7929    2.6588   50.4057 C.3     1  ZINC000151820600    0.1900
     11 H11        -4.0269    3.6550   50.0304 H       1  ZINC000151820600    0.1300
     12 N12        -3.6483    1.7340   49.2786 N.am    1  ZINC000151820600   -0.6900
     13 C13        -3.3068    2.2025   48.0619 C.2     1  ZINC000151820600    0.6600
     14 O14        -3.1202    3.3921   47.8994 O.2     1  ZINC000151820600   -0.5600
     15 O15        -3.1723    1.3524   47.0266 O.3     1  ZINC000151820600   -0.3600
     16 C16        -1.8767    1.3100   46.3725 C.3     1  ZINC000151820600    0.1400
     17 C17        -1.7753    2.4585   45.3667 C.3     1  ZINC000151820600   -0.1800
     18 C18        -0.7713    1.4511   47.4208 C.3     1  ZINC000151820600   -0.1400
     19 C19        -1.7182   -0.0242   45.6407 C.3     1  ZINC000151820600   -0.1800
     20 C20        -4.9067    2.1858   51.3038 C.ar    1  ZINC000151820600   -0.1000
     21 C21        -5.5742    3.0881   52.1106 C.ar    1  ZINC000151820600   -0.0900
     22 C22        -6.5966    2.6550   52.9344 C.ar    1  ZINC000151820600   -0.1000
     23 C23        -6.9513    1.3195   52.9522 C.ar    1  ZINC000151820600   -0.1000
     24 C24        -6.2834    0.4157   52.1447 C.ar    1  ZINC000151820600   -0.0300
     25 Cl25       -6.7289   -1.2621   52.1661 Cl      1  ZINC000151820600   -0.0600
     26 C26        -5.2644    0.8506   51.3165 C.ar    1  ZINC000151820600   -0.0900
     27 H27         4.9077    1.7424   50.5955 H       1  ZINC000151820600    0.0800
     28 H28         4.3760    0.6803   51.9213 H       1  ZINC000151820600    0.1100
     29 H29         4.7129   -0.0041   50.3130 H       1  ZINC000151820600    0.1100
     30 H30         2.2315    2.3616   52.4084 H       1  ZINC000151820600    0.1200
     31 H31         2.7632    3.4238   51.0827 H       1  ZINC000151820600    0.0900
     32 H32         0.4342    3.9186   51.4917 H       1  ZINC000151820600    0.0800
     33 H33         0.5093    2.9900   49.9750 H       1  ZINC000151820600    0.0900
     34 H34         0.2295    0.9122   51.6123 H       1  ZINC000151820600    0.0800
     35 H35        -0.4711    2.1377   52.6967 H       1  ZINC000151820600    0.0700
     36 H36        -1.6283    1.1841   50.1944 H       1  ZINC000151820600    0.4000
     37 H37        -3.7984    0.7844   49.4081 H       1  ZINC000151820600    0.4200
     38 H38        -1.8882    3.4091   45.8881 H       1  ZINC000151820600    0.0600
     39 H39        -0.8027    2.4267   44.8757 H       1  ZINC000151820600    0.0700
     40 H40        -2.5628    2.3579   44.6198 H       1  ZINC000151820600    0.0900
     41 H41        -0.8435    0.6329   48.1374 H       1  ZINC000151820600    0.0700
     42 H42         0.2013    1.4193   46.9299 H       1  ZINC000151820600    0.0800
     43 H43        -0.8842    2.4017   47.9423 H       1  ZINC000151820600    0.0700
     44 H44        -2.5057   -0.1248   44.8938 H       1  ZINC000151820600    0.0900
     45 H45        -0.7456   -0.0560   45.1497 H       1  ZINC000151820600    0.0700
     46 H46        -1.7905   -0.8425   46.3572 H       1  ZINC000151820600    0.0600
     47 H47        -5.2968    4.1318   52.0975 H       1  ZINC000151820600    0.1300
     48 H48        -7.1178    3.3604   53.5646 H       1  ZINC000151820600    0.1400
     49 H49        -7.7494    0.9812   53.5964 H       1  ZINC000151820600    0.1400
     50 H50        -4.7428    0.1457   50.6861 H       1  ZINC000151820600    0.1400
@<TRIPOS>BOND
     1     1     2    1
     2     1    27    1
     3     1    28    1
     4     1    29    1
     5     2     3    2
     6     2     4    1
     7     4     5    1
     8     4    30    1
     9     4    31    1
    10     5     6    1
    11     5    32    1
    12     5    33    1
    13     6     7    1
    14     6    34    1
    15     6    35    1
    16     7     8   am
    17     7    36    1
    18     8     9    2
    19     8    10    1
    20    10    11    1
    21    10    12    1
    22    10    20    1
    23    12    13   am
    24    12    37    1
    25    13    14    2
    26    13    15    1
    27    15    16    1
    28    16    17    1
    29    16    18    1
    30    16    19    1
    31    17    38    1
    32    17    39    1
    33    17    40    1
    34    18    41    1
    35    18    42    1
    36    18    43    1
    37    19    44    1
    38    19    45    1
    39    19    46    1
    40    20    26   ar
    41    20    21   ar
    42    21    22   ar
    43    21    47    1
    44    22    23   ar
    45    22    48    1
    46    23    24   ar
    47    23    49    1
    48    24    25    1
    49    24    26   ar
    50    26    50    1
@<TRIPOS>SUBSTRUCTURE
     1 ZINC000151820600        1 TEMP              0 ****  ****    0 ROOT


##########                                Name:    ZINC000503413572
##########                DOCK_Rotatable_Bonds:                   7
##########                         Heavy_Atoms:                  26
##########                    Molecular_Weight:             355.375
##########                DOCK_Rotatable_Bonds:                   7
##########                       Formal_Charge:        -1.71363e-07
##########                     HBond_Acceptors:                   9
##########                        HBond_Donors:                   1
##########                         Heavy_Atoms:                  26
##########                          Grid_Score:          -33.464664
##########                     Grid_vdw_energy:          -33.493851
##########                      Grid_es_energy:            0.029186
##########           Internal_energy_repulsive:            6.575992

@<TRIPOS>MOLECULE
ZINC000503413572
 44 47 1 0 0
SMALL
USER_CHARGES


@<TRIPOS>ATOM
      1 C1        -12.0711   -0.7450   60.2057 C.3     1  ZINC000503413572   -0.1200
      2 C2        -10.7104   -0.8123   60.8499 C.ar    1  ZINC000503413572   -0.0200
      3 C3        -10.4757   -0.1510   62.0392 C.ar    1  ZINC000503413572   -0.1400
      4 C4         -9.2254   -0.2128   62.6319 C.ar    1  ZINC000503413572    0.1300
      5 F5         -8.9976    0.4345   63.7956 F       1  ZINC000503413572   -0.1300
      6 C6         -8.2087   -0.9378   62.0334 C.ar    1  ZINC000503413572   -0.1400
      7 C7         -8.4399   -1.6006   60.8439 C.ar    1  ZINC000503413572   -0.0700
      8 C8         -9.6937   -1.5439   60.2511 C.ar    1  ZINC000503413572    0.1000
      9 N9         -9.9304   -2.2169   59.0432 N.pl3   1  ZINC000503413572   -0.3100
     10 C10        -9.7280   -1.7332   57.7986 C.2     1  ZINC000503413572    0.1100
     11 C11       -10.0888   -2.7218   56.9273 C.2     1  ZINC000503413572   -0.1000
     12 C12       -10.0336   -2.6366   55.4557 C.2     1  ZINC000503413572    0.6100
     13 O13        -9.8963   -3.6467   54.7929 O.2     1  ZINC000503413572   -0.5300
     14 N14       -10.1354   -1.4391   54.8458 N.am    1  ZINC000503413572   -0.7200
     15 C15       -10.0824   -1.3546   53.3841 C.3     1  ZINC000503413572    0.1100
     16 C16        -9.5942    0.0353   52.9710 C.3     1  ZINC000503413572    0.1000
     17 N17        -8.2237   -0.0599   52.4621 N.pl3   1  ZINC000503413572   -0.4700
     18 C18        -7.7851   -0.8365   51.4421 C.2     1  ZINC000503413572    0.1500
     19 N19        -6.5038   -0.6227   51.3145 N.2     1  ZINC000503413572   -0.2900
     20 N20        -6.1190    0.2370   52.1900 N.2     1  ZINC000503413572   -0.2900
     21 C21        -7.1385    0.6151   52.9122 C.2     1  ZINC000503413572    0.2100
     22 C22        -7.1114    1.6102   54.0436 C.3     1  ZINC000503413572   -0.1000
     23 C23        -6.0449    2.7061   53.9952 C.3     1  ZINC000503413572   -0.1500
     24 C24        -7.5106    3.0525   53.7256 C.3     1  ZINC000503413572   -0.1600
     25 N25       -10.5025   -3.7852   57.6377 N.2     1  ZINC000503413572   -0.2000
     26 N26       -10.4172   -3.5235   58.8954 N.2     1  ZINC000503413572   -0.0400
     27 H27       -12.6573   -1.6146   60.5031 H       1  ZINC000503413572    0.0900
     28 H28       -12.5806    0.1637   60.5266 H       1  ZINC000503413572    0.0800
     29 H29       -11.9597   -0.7355   59.1215 H       1  ZINC000503413572    0.0700
     30 H30       -11.2674    0.4153   62.5071 H       1  ZINC000503413572    0.1500
     31 H31        -7.2343   -0.9846   62.4968 H       1  ZINC000503413572    0.1500
     32 H32        -7.6466   -2.1655   60.3771 H       1  ZINC000503413572    0.1500
     33 H33        -9.3534   -0.7534   57.5416 H       1  ZINC000503413572    0.2100
     34 H34       -10.2438   -0.6330   55.3745 H       1  ZINC000503413572    0.4100
     35 H35        -9.3958   -2.1096   53.0012 H       1  ZINC000503413572    0.0800
     36 H36       -11.0775   -1.5269   52.9739 H       1  ZINC000503413572    0.0800
     37 H37       -10.2445    0.4320   52.1914 H       1  ZINC000503413572    0.1100
     38 H38        -9.6155    0.6996   53.8349 H       1  ZINC000503413572    0.1100
     39 H39        -8.3844   -1.5085   50.8457 H       1  ZINC000503413572    0.2200
     40 H40        -7.3848    1.2164   55.0225 H       1  ZINC000503413572    0.1200
     41 H41        -5.6165    3.0336   54.9424 H       1  ZINC000503413572    0.1100
     42 H42        -5.3628    2.7074   53.1449 H       1  ZINC000503413572    0.1100
     43 H43        -7.7928    3.2817   52.6980 H       1  ZINC000503413572    0.1000
     44 H44        -8.0464    3.6078   54.4954 H       1  ZINC000503413572    0.1100
@<TRIPOS>BOND
     1     1     2    1
     2     1    27    1
     3     1    28    1
     4     1    29    1
     5     2     8   ar
     6     2     3   ar
     7     3     4   ar
     8     3    30    1
     9     4     5    1
    10     4     6   ar
    11     6     7   ar
    12     6    31    1
    13     7     8   ar
    14     7    32    1
    15     8     9    1
    16     9    26    1
    17     9    10    1
    18    10    11    2
    19    10    33    1
    20    11    12    1
    21    11    25    1
    22    12    13    2
    23    12    14   am
    24    14    15    1
    25    14    34    1
    26    15    16    1
    27    15    35    1
    28    15    36    1
    29    16    17    1
    30    16    37    1
    31    16    38    1
    32    17    21    1
    33    17    18    1
    34    18    19    2
    35    18    39    1
    36    19    20    1
    37    20    21    2
    38    21    22    1
    39    22    24    1
    40    22    23    1
    41    22    40    1
    42    23    24    1
    43    23    41    1
    44    23    42    1
    45    24    43    1
    46    24    44    1
    47    25    26    2
@<TRIPOS>SUBSTRUCTURE
     1 ZINC000503413572        1 TEMP              0 ****  ****    0 ROOT


##########                                Name:    ZINC001124460178
##########                DOCK_Rotatable_Bonds:                  12
##########                         Heavy_Atoms:                  22
##########                    Molecular_Weight:             328.479
##########                DOCK_Rotatable_Bonds:                  12
##########                       Formal_Charge:          -0.0100003
##########                     HBond_Acceptors:                   7
##########                        HBond_Donors:                   2
##########                         Heavy_Atoms:                  22
##########                          Grid_Score:          -33.450054
##########                     Grid_vdw_energy:          -32.764553
##########                      Grid_es_energy:           -0.685502
##########           Internal_energy_repulsive:           19.237919

@<TRIPOS>MOLECULE
ZINC001124460178
 50 50 1 0 0
SMALL
USER_CHARGES


@<TRIPOS>ATOM
      1 C1         -6.2574   -1.0168   51.8804 C.3     1  ZINC001124460178   -0.0700
      2 C2         -7.7526   -1.1837   51.9701 C.2     1  ZINC001124460178    0.3100
      3 N3         -8.4906   -1.2096   50.8988 N.2     1  ZINC001124460178   -0.5000
      4 S4        -10.0880   -1.4103   51.4434 S.3     1  ZINC001124460178    0.1800
      5 C5         -9.6604   -1.4483   53.1121 C.2     1  ZINC001124460178    0.3400
      6 N6        -10.5079   -1.5951   54.1953 N.pl3   1  ZINC001124460178   -0.6600
      7 C7         -9.9554   -1.7156   55.5467 C.3     1  ZINC001124460178    0.0900
      8 C8        -11.0593   -2.1518   56.5121 C.3     1  ZINC001124460178    0.0800
      9 H9        -11.9600   -2.3946   55.9483 H       1  ZINC001124460178    0.1200
     10 O10       -10.6280   -3.3035   57.2398 O.3     1  ZINC001124460178   -0.5500
     11 C11       -11.3607   -1.0142   57.4897 C.3     1  ZINC001124460178    0.0900
     12 N12       -11.7833   -1.5744   58.7757 N.am    1  ZINC001124460178   -0.6100
     13 C13       -13.1719   -1.9998   58.9686 C.3     1  ZINC001124460178    0.0800
     14 C14       -10.8947   -1.6983   59.7814 C.2     1  ZINC001124460178    0.5100
     15 O15       -11.2441   -2.1635   60.8455 O.2     1  ZINC001124460178   -0.5400
     16 C16        -9.4668   -1.2589   59.5835 C.3     1  ZINC001124460178   -0.1400
     17 C17        -8.6881   -1.4537   60.8862 C.3     1  ZINC001124460178   -0.1100
     18 C18        -8.9151   -0.2484   61.8010 C.3     1  ZINC001124460178   -0.1200
     19 C19        -8.1491   -0.4504   63.1099 C.3     1  ZINC001124460178   -0.1200
     20 C20        -8.1801    0.8446   63.9241 C.3     1  ZINC001124460178   -0.1000
     21 C21        -9.6216    1.1570   64.3307 C.3     1  ZINC001124460178   -0.1500
     22 C22        -7.3207    0.6788   65.1789 C.3     1  ZINC001124460178   -0.1500
     23 N23        -8.3512   -1.3128   53.1313 N.2     1  ZINC001124460178   -0.5800
     24 H24        -5.7866   -1.9968   51.8022 H       1  ZINC001124460178    0.0900
     25 H25        -6.0102   -0.4237   51.0000 H       1  ZINC001124460178    0.0900
     26 H26        -5.8942   -0.5095   52.7741 H       1  ZINC001124460178    0.0900
     27 H27       -11.4682   -1.6183   54.0601 H       1  ZINC001124460178    0.4200
     28 H28        -9.1572   -2.4579   55.5481 H       1  ZINC001124460178    0.0800
     29 H29        -9.5559   -0.7519   55.8632 H       1  ZINC001124460178    0.0900
     30 H30        -9.8565   -3.1475   57.8016 H       1  ZINC001124460178    0.3800
     31 H31       -10.4641   -0.4112   57.6332 H       1  ZINC001124460178    0.0900
     32 H32       -12.1577   -0.3898   57.0860 H       1  ZINC001124460178    0.1000
     33 H33       -13.2734   -3.0476   58.6858 H       1  ZINC001124460178    0.0600
     34 H34       -13.4470   -1.8780   60.0163 H       1  ZINC001124460178    0.0800
     35 H35       -13.8282   -1.3905   58.3473 H       1  ZINC001124460178    0.0800
     36 H36        -9.0091   -1.8551   58.7941 H       1  ZINC001124460178    0.0900
     37 H37        -9.4463   -0.2061   59.3019 H       1  ZINC001124460178    0.0900
     38 H38        -9.0349   -2.3588   61.3849 H       1  ZINC001124460178    0.0700
     39 H39        -7.6251   -1.5460   60.6637 H       1  ZINC001124460178    0.0700
     40 H40        -8.5581    0.6551   61.3068 H       1  ZINC001124460178    0.0600
     41 H41        -9.9794   -0.1496   62.0144 H       1  ZINC001124460178    0.0600
     42 H42        -8.6150   -1.2515   63.6837 H       1  ZINC001124460178    0.0600
     43 H43        -7.1153   -0.7158   62.8887 H       1  ZINC001124460178    0.0600
     44 H44        -7.7875    1.6628   63.3203 H       1  ZINC001124460178    0.0700
     45 H45       -10.0142    0.3387   64.9346 H       1  ZINC001124460178    0.0500
     46 H46        -9.6438    2.0796   64.9107 H       1  ZINC001124460178    0.0500
     47 H47       -10.2339    1.2751   63.4368 H       1  ZINC001124460178    0.0500
     48 H48        -6.2937    0.4563   64.8892 H       1  ZINC001124460178    0.0600
     49 H49        -7.3427    1.6015   65.7590 H       1  ZINC001124460178    0.0500
     50 H50        -7.7132   -0.1393   65.7827 H       1  ZINC001124460178    0.0500
@<TRIPOS>BOND
     1     1     2    1
     2     1    24    1
     3     1    25    1
     4     1    26    1
     5     2    23    1
     6     2     3    2
     7     3     4    1
     8     4     5    1
     9     5     6    1
    10     5    23    2
    11     6     7    1
    12     6    27    1
    13     7     8    1
    14     7    28    1
    15     7    29    1
    16     8     9    1
    17     8    10    1
    18     8    11    1
    19    10    30    1
    20    11    12    1
    21    11    31    1
    22    11    32    1
    23    12    13    1
    24    12    14   am
    25    13    33    1
    26    13    34    1
    27    13    35    1
    28    14    15    2
    29    14    16    1
    30    16    17    1
    31    16    36    1
    32    16    37    1
    33    17    18    1
    34    17    38    1
    35    17    39    1
    36    18    19    1
    37    18    40    1
    38    18    41    1
    39    19    20    1
    40    19    42    1
    41    19    43    1
    42    20    21    1
    43    20    22    1
    44    20    44    1
    45    21    45    1
    46    21    46    1
    47    21    47    1
    48    22    48    1
    49    22    49    1
    50    22    50    1
@<TRIPOS>SUBSTRUCTURE
     1 ZINC001124460178        1 TEMP              0 ****  ****    0 ROOT


##########                                Name:    ZINC000740930783
##########                DOCK_Rotatable_Bonds:                  11
##########                         Heavy_Atoms:                  27
##########                    Molecular_Weight:             413.257
##########                DOCK_Rotatable_Bonds:                  11
##########                       Formal_Charge:          -0.0100004
##########                     HBond_Acceptors:                   9
##########                        HBond_Donors:                   4
##########                         Heavy_Atoms:                  27
##########                          Grid_Score:          -33.446491
##########                     Grid_vdw_energy:          -32.059528
##########                      Grid_es_energy:           -1.386964
##########           Internal_energy_repulsive:           17.743324

@<TRIPOS>MOLECULE
ZINC000740930783
 45 46 1 0 0
SMALL
USER_CHARGES


@<TRIPOS>ATOM
      1 C1        -10.1283   -3.2395   57.6241 C.3     1  ZINC000740930783    0.0200
      2 O2        -10.5143   -3.6767   56.3195 O.3     1  ZINC000740930783   -0.3000
      3 C3        -10.9152   -2.7192   55.4408 C.ar    1  ZINC000740930783    0.1200
      4 C4        -10.1478   -2.4395   54.3268 C.ar    1  ZINC000740930783   -0.1400
      5 C5        -10.5624   -1.4554   53.4253 C.ar    1  ZINC000740930783   -0.0800
      6 C6         -9.7460   -1.1533   52.2332 C.2     1  ZINC000740930783    0.5600
      7 O7        -10.1470   -1.4619   51.1276 O.2     1  ZINC000740930783   -0.5300
      8 N8         -8.5562   -0.5353   52.3703 N.am    1  ZINC000740930783   -0.7200
      9 C9         -7.7451   -0.2369   51.1873 C.3     1  ZINC000740930783    0.0900
     10 C10        -6.2862   -0.0420   51.6051 C.3     1  ZINC000740930783    0.1400
     11 H11        -5.6357   -0.2260   50.7501 H       1  ZINC000740930783    0.1200
     12 O12        -5.9647   -0.9577   52.6540 O.3     1  ZINC000740930783   -0.5500
     13 C13        -6.0877    1.3700   52.0927 C.ar    1  ZINC000740930783   -0.1100
     14 C14        -6.8762    1.8660   53.1134 C.ar    1  ZINC000740930783   -0.1000
     15 C15        -6.6941    3.1615   53.5610 C.ar    1  ZINC000740930783   -0.1100
     16 C16        -5.7239    3.9614   52.9872 C.ar    1  ZINC000740930783   -0.1000
     17 C17        -4.9345    3.4665   51.9660 C.ar    1  ZINC000740930783   -0.1100
     18 C18        -5.1121    2.1684   51.5222 C.ar    1  ZINC000740930783   -0.0300
     19 Cl19       -4.1212    1.5460   50.2398 Cl      1  ZINC000740930783   -0.0600
     20 C20       -11.7512   -0.7586   53.6543 C.ar    1  ZINC000740930783   -0.1000
     21 C21       -12.5130   -1.0427   54.7685 C.ar    1  ZINC000740930783   -0.0200
     22 Cl22      -13.9904   -0.1762   55.0515 Cl      1  ZINC000740930783   -0.0300
     23 C23       -12.1032   -2.0244   55.6614 C.ar    1  ZINC000740930783    0.0900
     24 O24       -12.8565   -2.3008   56.7572 O.3     1  ZINC000740930783   -0.2900
     25 C25       -14.1503   -2.8633   56.5302 C.3     1  ZINC000740930783    0.0400
     26 C26       -14.1396   -4.3200   56.9161 C.2     1  ZINC000740930783    0.5200
     27 N27       -15.0134   -4.7807   57.8330 N.am    1  ZINC000740930783   -0.8500
     28 O28       -13.3447   -5.0778   56.4017 O.2     1  ZINC000740930783   -0.5100
     29 H29        -9.2900   -2.5477   57.5422 H       1  ZINC000740930783    0.0600
     30 H30       -10.9690   -2.7366   58.1023 H       1  ZINC000740930783    0.0600
     31 H31        -9.8317   -4.1006   58.2229 H       1  ZINC000740930783    0.1100
     32 H32        -9.2291   -2.9799   54.1531 H       1  ZINC000740930783    0.1600
     33 H33        -8.2369   -0.2880   53.2522 H       1  ZINC000740930783    0.4100
     34 H34        -7.8134   -1.0650   50.4818 H       1  ZINC000740930783    0.0900
     35 H35        -8.1127    0.6741   50.7151 H       1  ZINC000740930783    0.0800
     36 H36        -5.0477   -0.9034   52.9563 H       1  ZINC000740930783    0.3800
     37 H37        -7.6349    1.2417   53.5616 H       1  ZINC000740930783    0.1300
     38 H38        -7.3106    3.5487   54.3587 H       1  ZINC000740930783    0.1300
     39 H39        -5.5826    4.9736   53.3366 H       1  ZINC000740930783    0.1400
     40 H40        -4.1765    4.0917   51.5179 H       1  ZINC000740930783    0.1400
     41 H41       -12.0736    0.0025   52.9592 H       1  ZINC000740930783    0.1500
     42 H42       -14.8879   -2.3332   57.1328 H       1  ZINC000740930783    0.0900
     43 H43       -14.4076   -2.7688   55.4752 H       1  ZINC000740930783    0.0900
     44 H44       -15.0074   -5.7185   58.0807 H       1  ZINC000740930783    0.4000
     45 H45       -15.6484   -4.1743   58.2454 H       1  ZINC000740930783    0.4100
@<TRIPOS>BOND
     1     1     2    1
     2     1    29    1
     3     1    30    1
     4     1    31    1
     5     2     3    1
     6     3    23   ar
     7     3     4   ar
     8     4     5   ar
     9     4    32    1
    10     5     6    1
    11     5    20   ar
    12     6     7    2
    13     6     8   am
    14     8     9    1
    15     8    33    1
    16     9    10    1
    17     9    34    1
    18     9    35    1
    19    10    11    1
    20    10    12    1
    21    10    13    1
    22    12    36    1
    23    13    18   ar
    24    13    14   ar
    25    14    15   ar
    26    14    37    1
    27    15    16   ar
    28    15    38    1
    29    16    17   ar
    30    16    39    1
    31    17    18   ar
    32    17    40    1
    33    18    19    1
    34    20    21   ar
    35    20    41    1
    36    21    22    1
    37    21    23   ar
    38    23    24    1
    39    24    25    1
    40    25    26    1
    41    25    42    1
    42    25    43    1
    43    26    27   am
    44    26    28    2
    45    27    44    1
    46    27    45    1
@<TRIPOS>SUBSTRUCTURE
     1 ZINC000740930783        1 TEMP              0 ****  ****    0 ROOT


##########                                Name:    ZINC000962855438
##########                DOCK_Rotatable_Bonds:                   7
##########                         Heavy_Atoms:                  27
##########                    Molecular_Weight:             370.448
##########                DOCK_Rotatable_Bonds:                   7
##########                       Formal_Charge:           0.0300005
##########                     HBond_Acceptors:                   6
##########                        HBond_Donors:                   2
##########                         Heavy_Atoms:                  27
##########                          Grid_Score:          -33.411232
##########                     Grid_vdw_energy:          -32.627361
##########                      Grid_es_energy:           -0.783869
##########           Internal_energy_repulsive:           10.638939

@<TRIPOS>MOLECULE
ZINC000962855438
 53 56 1 0 0
SMALL
USER_CHARGES


@<TRIPOS>ATOM
      1 C1         -6.7736   -0.4388   52.1022 C.3     1  ZINC000962855438   -0.1100
      2 C2         -6.7616    0.8906   52.8119 C.2     1  ZINC000962855438   -0.1700
      3 C3         -5.9171    1.9851   52.3091 C.2     1  ZINC000962855438    0.5600
      4 O4         -5.9988    3.0929   52.8043 O.2     1  ZINC000962855438   -0.5400
      5 N5         -5.0528    1.7603   51.2997 N.am    1  ZINC000962855438   -0.7100
      6 C6         -4.2130    2.8507   50.7978 C.3     1  ZINC000962855438    0.1500
      7 H7         -4.8243    3.6831   50.4493 H       1  ZINC000962855438    0.1200
      8 C8         -3.2648    2.3514   49.6791 C.3     1  ZINC000962855438    0.1000
      9 N9         -2.1272    3.2889   49.7025 N.am    1  ZINC000962855438   -0.6100
     10 C10        -1.3032    3.5500   48.6684 C.2     1  ZINC000962855438    0.5800
     11 O11        -0.3939    4.3460   48.8016 O.2     1  ZINC000962855438   -0.5200
     12 C12        -1.5047    2.8698   47.3747 C.ar    1  ZINC000962855438   -0.1500
     13 C13        -2.0417    3.5693   46.2940 C.ar    1  ZINC000962855438   -0.0600
     14 C14        -2.2320    2.9363   45.0844 C.ar    1  ZINC000962855438   -0.1500
     15 C15        -1.8927    1.6002   44.9412 C.ar    1  ZINC000962855438   -0.0500
     16 C16        -1.3645    0.8994   46.0024 C.ar    1  ZINC000962855438   -0.1800
     17 C17        -1.1502    1.5165   47.2276 C.ar    1  ZINC000962855438    0.1600
     18 O18        -0.6042    0.6552   48.1254 O.3     1  ZINC000962855438   -0.2800
     19 C19        -0.8328   -0.6949   47.6869 C.3     1  ZINC000962855438    0.0700
     20 H20        -1.7683   -1.0797   48.0929 H       1  ZINC000962855438    0.0900
     21 C21         0.3382   -1.5980   48.0793 C.3     1  ZINC000962855438   -0.1500
     22 C22        -0.9181   -0.5428   46.1481 C.3     1  ZINC000962855438   -0.1100
     23 C23        -2.0411    3.8925   51.0403 C.3     1  ZINC000962855438    0.0700
     24 C24        -3.2025    3.3172   51.8788 C.3     1  ZINC000962855438    0.0900
     25 H25        -3.6413    4.0893   52.5108 H       1  ZINC000962855438    0.0900
     26 O26        -2.7570    2.2126   52.6686 O.3     1  ZINC000962855438   -0.5600
     27 C27        -7.5146    1.0743   53.8926 C.2     1  ZINC000962855438   -0.0600
     28 C28        -7.7870    2.2091   54.8572 C.3     1  ZINC000962855438   -0.1000
     29 C29        -8.1378    1.1413   55.9052 C.3     1  ZINC000962855438   -0.1400
     30 C30        -8.4870    0.2443   54.7035 C.3     1  ZINC000962855438   -0.1100
     31 H31        -6.0030   -1.0833   52.5252 H       1  ZINC000962855438    0.0700
     32 H32        -7.7492   -0.9086   52.2274 H       1  ZINC000962855438    0.0700
     33 H33        -6.5773   -0.2860   51.0410 H       1  ZINC000962855438    0.0700
     34 H34        -4.9869    0.8764   50.9055 H       1  ZINC000962855438    0.4100
     35 H35        -2.9257    1.3380   49.8934 H       1  ZINC000962855438    0.0800
     36 H36        -3.7666    2.3880   48.7122 H       1  ZINC000962855438    0.0900
     37 H37        -2.3095    4.6096   46.4053 H       1  ZINC000962855438    0.1400
     38 H38        -2.6457    3.4812   44.2488 H       1  ZINC000962855438    0.1400
     39 H39        -2.0436    1.1060   43.9928 H       1  ZINC000962855438    0.1300
     40 H40         0.4361   -1.6152   49.1647 H       1  ZINC000962855438    0.0700
     41 H41         0.1554   -2.6089   47.7148 H       1  ZINC000962855438    0.0800
     42 H42         1.2575   -1.2134   47.6375 H       1  ZINC000962855438    0.0700
     43 H43        -1.6621   -1.2210   45.7302 H       1  ZINC000962855438    0.1000
     44 H44         0.0561   -0.7030   45.6862 H       1  ZINC000962855438    0.1000
     45 H45        -1.0875    3.6361   51.5019 H       1  ZINC000962855438    0.0800
     46 H46        -2.1397    4.9754   50.9655 H       1  ZINC000962855438    0.0800
     47 H47        -2.1737    2.4611   53.3986 H       1  ZINC000962855438    0.3900
     48 H48        -6.8997    2.7905   55.1078 H       1  ZINC000962855438    0.0900
     49 H49        -8.6340    2.8318   54.5694 H       1  ZINC000962855438    0.1000
     50 H50        -7.2819    0.7948   56.4844 H       1  ZINC000962855438    0.0900
     51 H51        -8.9973    1.3978   56.5245 H       1  ZINC000962855438    0.0800
     52 H52        -9.5229    0.3369   54.3772 H       1  ZINC000962855438    0.1000
     53 H53        -8.1732   -0.7922   54.8277 H       1  ZINC000962855438    0.0800
@<TRIPOS>BOND
     1     1     2    1
     2     1    31    1
     3     1    32    1
     4     1    33    1
     5     2     3    1
     6     2    27    2
     7     3     4    2
     8     3     5   am
     9     5     6    1
    10     5    34    1
    11     6     7    1
    12     6    24    1
    13     6     8    1
    14     8     9    1
    15     8    35    1
    16     8    36    1
    17     9    10   am
    18     9    23    1
    19    10    11    2
    20    10    12    1
    21    12    17   ar
    22    12    13   ar
    23    13    14   ar
    24    13    37    1
    25    14    15   ar
    26    14    38    1
    27    15    16   ar
    28    15    39    1
    29    16    22    1
    30    16    17   ar
    31    17    18    1
    32    18    19    1
    33    19    20    1
    34    19    21    1
    35    19    22    1
    36    21    40    1
    37    21    41    1
    38    21    42    1
    39    22    43    1
    40    22    44    1
    41    23    24    1
    42    23    45    1
    43    23    46    1
    44    24    25    1
    45    24    26    1
    46    26    47    1
    47    27    30    1
    48    27    28    1
    49    28    29    1
    50    28    48    1
    51    28    49    1
    52    29    30    1
    53    29    50    1
    54    29    51    1
    55    30    52    1
    56    30    53    1
@<TRIPOS>SUBSTRUCTURE
     1 ZINC000962855438        1 TEMP              0 ****  ****    0 ROOT


##########                                Name:    ZINC000536173632
##########                DOCK_Rotatable_Bonds:                   7
##########                         Heavy_Atoms:                  29
##########                    Molecular_Weight:             407.389
##########                DOCK_Rotatable_Bonds:                   7
##########                       Formal_Charge:        -2.98023e-07
##########                     HBond_Acceptors:                   8
##########                        HBond_Donors:                   0
##########                         Heavy_Atoms:                  29
##########                          Grid_Score:          -33.389812
##########                     Grid_vdw_energy:          -32.961739
##########                      Grid_es_energy:           -0.428072
##########           Internal_energy_repulsive:           16.444109

@<TRIPOS>MOLECULE
ZINC000536173632
 49 51 1 0 0
SMALL
USER_CHARGES


@<TRIPOS>ATOM
      1 C1         -7.9739    0.3881   58.0414 C.3     1  ZINC000536173632    0.0400
      2 O2         -7.7491    0.3353   56.6078 O.3     1  ZINC000536173632   -0.3500
      3 C3         -8.8012    0.0013   55.8357 C.2     1  ZINC000536173632    0.5100
      4 O4         -9.8562   -0.3128   56.3495 O.2     1  ZINC000536173632   -0.5000
      5 C5         -8.6721    0.0170   54.3642 C.ar    1  ZINC000536173632   -0.1300
      6 C6         -9.7948   -0.1861   53.5596 C.ar    1  ZINC000536173632   -0.0600
      7 C7         -9.6671   -0.1703   52.1860 C.ar    1  ZINC000536173632   -0.1300
      8 C8         -8.4300    0.0457   51.6056 C.ar    1  ZINC000536173632   -0.0700
      9 C9         -7.3130    0.2476   52.3971 C.ar    1  ZINC000536173632   -0.0800
     10 C10        -5.9695    0.4822   51.7558 C.3     1  ZINC000536173632   -0.1000
     11 C11        -5.5425    1.9080   51.9916 C.2     1  ZINC000536173632    0.5200
     12 O12        -6.1906    2.6214   52.7277 O.2     1  ZINC000536173632   -0.5200
     13 N13        -4.4403    2.3905   51.3842 N.am    1  ZINC000536173632   -0.6200
     14 C14        -4.0035    3.7792   51.5989 C.3     1  ZINC000536173632    0.0700
     15 C15        -3.7678    4.4289   50.2305 C.3     1  ZINC000536173632    0.0500
     16 O16        -2.8936    3.6003   49.4604 O.3     1  ZINC000536173632   -0.3700
     17 C17        -3.4198    2.3025   49.1730 C.3     1  ZINC000536173632    0.1200
     18 H18        -4.3701    2.4028   48.6487 H       1  ZINC000536173632    0.0800
     19 C19        -2.4454    1.5444   48.3087 C.ar    1  ZINC000536173632   -0.0900
     20 C20        -2.7572    1.2737   46.9898 C.ar    1  ZINC000536173632   -0.0600
     21 C21        -1.8633    0.5782   46.1968 C.ar    1  ZINC000536173632   -0.1200
     22 C22        -0.6577    0.1541   46.7230 C.ar    1  ZINC000536173632   -0.0700
     23 C23        -0.3453    0.4258   48.0421 C.ar    1  ZINC000536173632   -0.1800
     24 C24         0.9691   -0.0369   48.6160 C.3     1  ZINC000536173632    0.5100
     25 F25         0.8234   -1.3290   49.1321 F       1  ZINC000536173632   -0.1800
     26 F26         1.9408   -0.0435   47.6096 F       1  ZINC000536173632   -0.1800
     27 F27         1.3631    0.8322   49.6390 F       1  ZINC000536173632   -0.1800
     28 C28        -1.2371    1.1248   48.8336 C.ar    1  ZINC000536173632   -0.0500
     29 C29        -3.6345    1.5422   50.4917 C.3     1  ZINC000536173632    0.0900
     30 C30        -7.4275    0.2406   53.7716 C.ar    1  ZINC000536173632   -0.0400
     31 H31        -8.7447    1.1267   58.2613 H       1  ZINC000536173632    0.0600
     32 H32        -8.2974   -0.5910   58.3947 H       1  ZINC000536173632    0.0600
     33 H33        -7.0482    0.6682   58.5441 H       1  ZINC000536173632    0.1000
     34 H34       -10.7610   -0.3555   54.0115 H       1  ZINC000536173632    0.1400
     35 H35       -10.5349   -0.3272   51.5624 H       1  ZINC000536173632    0.1400
     36 H36        -8.3355    0.0564   50.5297 H       1  ZINC000536173632    0.1300
     37 H37        -5.2351   -0.1942   52.1933 H       1  ZINC000536173632    0.1100
     38 H38        -6.0413    0.2968   50.6841 H       1  ZINC000536173632    0.1100
     39 H39        -4.7761    4.3279   52.1376 H       1  ZINC000536173632    0.1000
     40 H40        -3.0776    3.7881   52.1739 H       1  ZINC000536173632    0.0800
     41 H41        -4.7194    4.5370   49.7101 H       1  ZINC000536173632    0.0600
     42 H42        -3.3131    5.4101   50.3669 H       1  ZINC000536173632    0.1100
     43 H43        -3.6993    1.6050   46.5786 H       1  ZINC000536173632    0.1400
     44 H44        -2.1073    0.3659   45.1664 H       1  ZINC000536173632    0.1400
     45 H45         0.0403   -0.3898   46.1038 H       1  ZINC000536173632    0.1400
     46 H46        -0.9932    1.3371   49.8640 H       1  ZINC000536173632    0.1400
     47 H47        -2.6705    1.3268   50.9524 H       1  ZINC000536173632    0.0800
     48 H48        -4.1648    0.6102   50.2959 H       1  ZINC000536173632    0.1100
     49 H49        -6.5551    0.3987   54.3882 H       1  ZINC000536173632    0.1400
@<TRIPOS>BOND
     1     1     2    1
     2     1    31    1
     3     1    32    1
     4     1    33    1
     5     2     3    1
     6     3     4    2
     7     3     5    1
     8     5    30   ar
     9     5     6   ar
    10     6     7   ar
    11     6    34    1
    12     7     8   ar
    13     7    35    1
    14     8     9   ar
    15     8    36    1
    16     9    10    1
    17     9    30   ar
    18    10    11    1
    19    10    37    1
    20    10    38    1
    21    11    12    2
    22    11    13   am
    23    13    29    1
    24    13    14    1
    25    14    15    1
    26    14    39    1
    27    14    40    1
    28    15    16    1
    29    15    41    1
    30    15    42    1
    31    16    17    1
    32    17    18    1
    33    17    19    1
    34    17    29    1
    35    19    28   ar
    36    19    20   ar
    37    20    21   ar
    38    20    43    1
    39    21    22   ar
    40    21    44    1
    41    22    23   ar
    42    22    45    1
    43    23    24    1
    44    23    28   ar
    45    24    25    1
    46    24    26    1
    47    24    27    1
    48    28    46    1
    49    29    47    1
    50    29    48    1
    51    30    49    1
@<TRIPOS>SUBSTRUCTURE
     1 ZINC000536173632        1 TEMP              0 ****  ****    0 ROOT


##########                                Name:    ZINC001169875900
##########                DOCK_Rotatable_Bonds:                   9
##########                         Heavy_Atoms:                  24
##########                    Molecular_Weight:             329.399
##########                DOCK_Rotatable_Bonds:                   9
##########                       Formal_Charge:          -0.0500002
##########                     HBond_Acceptors:                   6
##########                        HBond_Donors:                   1
##########                         Heavy_Atoms:                  24
##########                          Grid_Score:          -33.367218
##########                     Grid_vdw_energy:          -32.798016
##########                      Grid_es_energy:           -0.569201
##########           Internal_energy_repulsive:            8.972533

@<TRIPOS>MOLECULE
ZINC001169875900
 47 48 1 0 0
SMALL
USER_CHARGES


@<TRIPOS>ATOM
      1 C1        -12.8209    0.7875   52.6602 C.3     1  ZINC001169875900   -0.1500
      2 C2        -11.4814    0.6171   53.3797 C.3     1  ZINC001169875900   -0.1300
      3 C3        -10.9238   -0.7790   53.0954 C.3     1  ZINC001169875900    0.0700
      4 O4         -9.6730   -0.9382   53.7677 O.3     1  ZINC001169875900   -0.3100
      5 C5         -8.5609   -0.5259   53.1067 C.ar    1  ZINC001169875900    0.2700
      6 N6         -8.2518   -1.0733   51.9438 N.ar    1  ZINC001169875900   -0.5000
      7 C7         -7.1779   -0.7087   51.2688 C.ar    1  ZINC001169875900    0.0600
      8 C8         -6.3329    0.2752   51.7593 C.ar    1  ZINC001169875900    0.1400
      9 N9         -5.1952    0.6567   51.0383 N.pl3   1  ZINC001169875900   -0.7400
     10 C10        -4.6000    1.9778   51.2544 C.3     1  ZINC001169875900    0.1800
     11 C11        -3.7742    2.3593   50.0530 C.ar    1  ZINC001169875900    0.1000
     12 C12        -3.6906    3.6902   49.6759 C.ar    1  ZINC001169875900   -0.1200
     13 C13        -2.9298    4.0368   48.5700 C.ar    1  ZINC001169875900   -0.0800
     14 C14        -2.2754    3.0312   47.8765 C.ar    1  ZINC001169875900   -0.1000
     15 C15        -2.4042    1.7140   48.3124 C.ar    1  ZINC001169875900    0.0900
     16 C16        -1.7114    0.6279   47.5823 C.2     1  ZINC001169875900    0.5200
     17 O17        -0.9249    0.8969   46.6971 O.2     1  ZINC001169875900   -0.5000
     18 O18        -1.9534   -0.6582   47.9002 O.3     1  ZINC001169875900   -0.3300
     19 C19        -1.2048   -1.6687   47.1744 C.3     1  ZINC001169875900    0.0600
     20 C20         0.1702   -1.8475   47.8213 C.3     1  ZINC001169875900   -0.1500
     21 N21        -3.1385    1.4254   49.3799 N.ar    1  ZINC001169875900   -0.4200
     22 C22        -6.6304    0.8791   52.9797 C.ar    1  ZINC001169875900   -0.1200
     23 C23        -7.7649    0.4700   53.6576 C.ar    1  ZINC001169875900   -0.1000
     24 C24        -8.1290    1.0928   54.9807 C.3     1  ZINC001169875900   -0.1000
     25 H25       -13.5240    0.0355   53.0184 H       1  ZINC001169875900    0.0600
     26 H26       -13.2182    1.7821   52.8627 H       1  ZINC001169875900    0.0600
     27 H27       -12.6748    0.6662   51.5869 H       1  ZINC001169875900    0.0600
     28 H28       -11.6276    0.7384   54.4531 H       1  ZINC001169875900    0.0700
     29 H29       -10.7783    1.3691   53.0215 H       1  ZINC001169875900    0.0700
     30 H30       -10.7773   -0.9002   52.0221 H       1  ZINC001169875900    0.0600
     31 H31       -11.6270   -1.5310   53.4534 H       1  ZINC001169875900    0.0600
     32 H32        -6.9547   -1.1822   50.3242 H       1  ZINC001169875900    0.1500
     33 H33        -4.8011    0.0464   50.3956 H       1  ZINC001169875900    0.4000
     34 H34        -5.3911    2.7134   51.4000 H       1  ZINC001169875900    0.0800
     35 H35        -3.9633    1.9492   52.1387 H       1  ZINC001169875900    0.0800
     36 H36        -4.2133    4.4500   50.2380 H       1  ZINC001169875900    0.1500
     37 H37        -2.8488    5.0671   48.2565 H       1  ZINC001169875900    0.1500
     38 H38        -1.6744    3.2651   47.0101 H       1  ZINC001169875900    0.1500
     39 H39        -1.7464   -2.6140   47.2051 H       1  ZINC001169875900    0.0700
     40 H40        -1.0807   -1.3546   46.1381 H       1  ZINC001169875900    0.0700
     41 H41         0.7118   -0.9021   47.7906 H       1  ZINC001169875900    0.0700
     42 H42         0.0461   -2.1616   48.8576 H       1  ZINC001169875900    0.0700
     43 H43         0.7322   -2.6061   47.2764 H       1  ZINC001169875900    0.0800
     44 H44        -5.9905    1.6480   53.3867 H       1  ZINC001169875900    0.1400
     45 H45        -8.7676    1.9597   54.8107 H       1  ZINC001169875900    0.0700
     46 H46        -7.2215    1.4057   55.4970 H       1  ZINC001169875900    0.0700
     47 H47        -8.6614    0.3635   55.5913 H       1  ZINC001169875900    0.0700
@<TRIPOS>BOND
     1     1     2    1
     2     1    25    1
     3     1    26    1
     4     1    27    1
     5     2     3    1
     6     2    28    1
     7     2    29    1
     8     3     4    1
     9     3    30    1
    10     3    31    1
    11     4     5    1
    12     5    23   ar
    13     5     6   ar
    14     6     7   ar
    15     7     8   ar
    16     7    32    1
    17     8     9    1
    18     8    22   ar
    19     9    10    1
    20     9    33    1
    21    10    11    1
    22    10    34    1
    23    10    35    1
    24    11    21   ar
    25    11    12   ar
    26    12    13   ar
    27    12    36    1
    28    13    14   ar
    29    13    37    1
    30    14    15   ar
    31    14    38    1
    32    15    16    1
    33    15    21   ar
    34    16    17    2
    35    16    18    1
    36    18    19    1
    37    19    20    1
    38    19    39    1
    39    19    40    1
    40    20    41    1
    41    20    42    1
    42    20    43    1
    43    22    23   ar
    44    22    44    1
    45    23    24    1
    46    24    45    1
    47    24    46    1
    48    24    47    1
@<TRIPOS>SUBSTRUCTURE
     1 ZINC001169875900        1 TEMP              0 ****  ****    0 ROOT


##########                                Name:    ZINC000492313853
##########                DOCK_Rotatable_Bonds:                   8
##########                         Heavy_Atoms:                  30
##########                    Molecular_Weight:             418.422
##########                DOCK_Rotatable_Bonds:                   8
##########                       Formal_Charge:          -0.0100008
##########                     HBond_Acceptors:                  10
##########                        HBond_Donors:                   2
##########                         Heavy_Atoms:                  30
##########                          Grid_Score:          -33.361954
##########                     Grid_vdw_energy:          -33.178799
##########                      Grid_es_energy:           -0.183155
##########           Internal_energy_repulsive:           12.606006

@<TRIPOS>MOLECULE
ZINC000492313853
 51 53 1 0 0
SMALL
USER_CHARGES


@<TRIPOS>ATOM
      1 C1        -13.7013   -0.0851   50.6816 C.3     1  ZINC000492313853    0.0900
      2 N2        -12.6793    0.9646   50.6887 N.pl3   1  ZINC000492313853   -0.6200
      3 C3        -12.9480    2.2528   50.0450 C.3     1  ZINC000492313853    0.1000
      4 C4        -11.4547    0.7383   51.3064 C.ar    1  ZINC000492313853    0.4100
      5 C5        -11.0149   -0.5659   51.5074 C.ar    1  ZINC000492313853   -0.2400
      6 C6         -9.7940   -0.7766   52.1229 C.ar    1  ZINC000492313853   -0.0100
      7 C7         -9.0515    0.3280   52.5180 C.ar    1  ZINC000492313853   -0.2300
      8 C8         -7.7158    0.1461   53.1916 C.3     1  ZINC000492313853    0.2000
      9 N9         -6.8648    1.3048   52.9097 N.am    1  ZINC000492313853   -0.7300
     10 C10        -5.7284    1.1499   52.2018 C.2     1  ZINC000492313853    0.7100
     11 O11        -5.4101    0.0488   51.7959 O.2     1  ZINC000492313853   -0.5600
     12 N12        -4.9447    2.2157   51.9439 N.am    1  ZINC000492313853   -0.6600
     13 C13        -3.7675    2.0552   51.2126 C.2     1  ZINC000492313853    0.3300
     14 C14        -3.6745    1.6190   49.9290 C.2     1  ZINC000492313853   -0.2600
     15 C15        -2.3118    1.6042   49.5774 C.2     1  ZINC000492313853    0.1200
     16 C16        -1.7557    1.1939   48.2640 C.ar    1  ZINC000492313853   -0.0100
     17 C17        -2.5806    1.1361   47.1429 C.ar    1  ZINC000492313853   -0.0600
     18 C18        -2.0581    0.7543   45.9236 C.ar    1  ZINC000492313853   -0.1200
     19 C19        -0.7183    0.4296   45.8137 C.ar    1  ZINC000492313853   -0.0700
     20 C20         0.1054    0.4854   46.9238 C.ar    1  ZINC000492313853   -0.1900
     21 C21         1.5645    0.1305   46.7964 C.3     1  ZINC000492313853    0.5100
     22 F22         2.0554    0.6070   45.5760 F       1  ZINC000492313853   -0.1800
     23 F23         2.2800    0.7149   47.8469 F       1  ZINC000492313853   -0.1800
     24 F24         1.7126   -1.2597   46.8477 F       1  ZINC000492313853   -0.1800
     25 C25        -0.4053    0.8707   48.1465 C.ar    1  ZINC000492313853   -0.0400
     26 N26        -1.6162    2.0172   50.6155 N.2     1  ZINC000492313853   -0.2700
     27 N27        -2.5084    2.3124   51.6539 N.pl3   1  ZINC000492313853   -0.3900
     28 C28        -2.1469    2.8035   52.9860 C.3     1  ZINC000492313853    0.1000
     29 C29        -9.5492    1.5950   52.2869 C.ar    1  ZINC000492313853    0.1700
     30 N30       -10.7149    1.7663   51.6931 N.ar    1  ZINC000492313853   -0.5400
     31 H31       -13.5760   -0.7082   49.7961 H       1  ZINC000492313853    0.0600
     32 H32       -13.5972   -0.6996   51.5759 H       1  ZINC000492313853    0.0700
     33 H33       -14.6910    0.3715   50.6676 H       1  ZINC000492313853    0.0700
     34 H34       -13.9512    2.2439   49.6188 H       1  ZINC000492313853    0.0700
     35 H35       -12.8743    3.0507   50.7839 H       1  ZINC000492313853    0.0600
     36 H36       -12.2184    2.4225   49.2531 H       1  ZINC000492313853    0.0600
     37 H37       -11.6183   -1.4025   51.1878 H       1  ZINC000492313853    0.1300
     38 H38        -9.4268   -1.7780   52.2927 H       1  ZINC000492313853    0.1400
     39 H39        -7.8611    0.0554   54.2681 H       1  ZINC000492313853    0.0800
     40 H40        -7.2376   -0.7569   52.8122 H       1  ZINC000492313853    0.0800
     41 H41        -7.1193    2.1834   53.2325 H       1  ZINC000492313853    0.4000
     42 H42        -5.1992    3.0943   52.2666 H       1  ZINC000492313853    0.4100
     43 H43        -4.4991    1.3340   49.2924 H       1  ZINC000492313853    0.1800
     44 H44        -3.6271    1.3891   47.2277 H       1  ZINC000492313853    0.1400
     45 H45        -2.6968    0.7089   45.0538 H       1  ZINC000492313853    0.1400
     46 H46        -0.3136    0.1311   44.8579 H       1  ZINC000492313853    0.1400
     47 H47         0.2385    0.9140   49.0125 H       1  ZINC000492313853    0.1400
     48 H48        -2.1290    3.8933   52.9790 H       1  ZINC000492313853    0.0800
     49 H49        -2.8816    2.4568   53.7127 H       1  ZINC000492313853    0.0800
     50 H50        -1.1611    2.4256   53.2572 H       1  ZINC000492313853    0.1000
     51 H51        -8.9749    2.4572   52.5926 H       1  ZINC000492313853    0.1600
@<TRIPOS>BOND
     1     1     2    1
     2     1    31    1
     3     1    32    1
     4     1    33    1
     5     2     3    1
     6     2     4    1
     7     3    34    1
     8     3    35    1
     9     3    36    1
    10     4    30   ar
    11     4     5   ar
    12     5     6   ar
    13     5    37    1
    14     6     7   ar
    15     6    38    1
    16     7     8    1
    17     7    29   ar
    18     8     9    1
    19     8    39    1
    20     8    40    1
    21     9    10   am
    22     9    41    1
    23    10    11    2
    24    10    12   am
    25    12    13    1
    26    12    42    1
    27    13    27    1
    28    13    14    2
    29    14    15    1
    30    14    43    1
    31    15    16    1
    32    15    26    2
    33    16    25   ar
    34    16    17   ar
    35    17    18   ar
    36    17    44    1
    37    18    19   ar
    38    18    45    1
    39    19    20   ar
    40    19    46    1
    41    20    21    1
    42    20    25   ar
    43    21    22    1
    44    21    23    1
    45    21    24    1
    46    25    47    1
    47    26    27    1
    48    27    28    1
    49    28    48    1
    50    28    49    1
    51    28    50    1
    52    29    30   ar
    53    29    51    1
@<TRIPOS>SUBSTRUCTURE
     1 ZINC000492313853        1 TEMP              0 ****  ****    0 ROOT


##########                                Name:    ZINC000550217006
##########                DOCK_Rotatable_Bonds:                   7
##########                         Heavy_Atoms:                  27
##########                    Molecular_Weight:             367.404
##########                DOCK_Rotatable_Bonds:                   7
##########                       Formal_Charge:          0.00999951
##########                     HBond_Acceptors:                   7
##########                        HBond_Donors:                   3
##########                         Heavy_Atoms:                  27
##########                          Grid_Score:          -33.350536
##########                     Grid_vdw_energy:          -32.113663
##########                      Grid_es_energy:           -1.236872
##########           Internal_energy_repulsive:           13.588696

@<TRIPOS>MOLECULE
ZINC000550217006
 48 50 1 0 0
SMALL
USER_CHARGES


@<TRIPOS>ATOM
      1 C1        -12.7973    1.1407   63.7431 C.3     1  ZINC000550217006   -0.1500
      2 C2        -12.0167    2.3268   63.1733 C.3     1  ZINC000550217006    0.0500
      3 O3        -11.0895    1.8594   62.1916 O.3     1  ZINC000550217006   -0.3100
      4 C4        -10.0776    1.0640   62.6280 C.ar    1  ZINC000550217006    0.1400
      5 C5         -9.6117    1.1836   63.9291 C.ar    1  ZINC000550217006   -0.2100
      6 C6         -8.5832    0.3734   64.3706 C.ar    1  ZINC000550217006   -0.0800
      7 C7         -8.0181   -0.5554   63.5167 C.ar    1  ZINC000550217006   -0.1600
      8 C8         -8.4805   -0.6763   62.2190 C.ar    1  ZINC000550217006   -0.0700
      9 C9         -9.5126    0.1270   61.7747 C.ar    1  ZINC000550217006   -0.1200
     10 C10       -10.0164   -0.0056   60.3607 C.3     1  ZINC000550217006   -0.0800
     11 C11        -9.4313    1.1186   59.5033 C.3     1  ZINC000550217006    0.1300
     12 N12        -9.5087    0.7449   58.0890 N.am    1  ZINC000550217006   -0.7200
     13 C13        -8.4057    0.3164   57.4438 C.2     1  ZINC000550217006    0.5600
     14 O14        -7.3466    0.2415   58.0350 O.2     1  ZINC000550217006   -0.5300
     15 C15        -8.4843   -0.0630   56.0148 C.ar    1  ZINC000550217006   -0.0800
     16 C16        -9.4535   -0.9720   55.5840 C.ar    1  ZINC000550217006   -0.1000
     17 C17        -9.5221   -1.3223   54.2578 C.ar    1  ZINC000550217006   -0.0500
     18 C18        -8.6270   -0.7755   53.3234 C.ar    1  ZINC000550217006   -0.1300
     19 C19        -7.6602    0.1349   53.7490 C.ar    1  ZINC000550217006    0.1800
     20 C20        -7.5979    0.4885   55.0981 C.ar    1  ZINC000550217006   -0.0900
     21 N21        -6.7463    0.7308   52.8968 N.am    1  ZINC000550217006   -0.6600
     22 C22        -6.1037    0.1247   51.9032 C.2     1  ZINC000550217006    0.5100
     23 O23        -5.2915    0.7530   51.2579 O.2     1  ZINC000550217006   -0.5100
     24 C24        -6.3539   -1.3173   51.5560 C.3     1  ZINC000550217006    0.0900
     25 N25        -7.7399   -1.4624   51.1108 N.am    1  ZINC000550217006   -0.7100
     26 C26        -8.7627   -1.2049   51.9240 C.2     1  ZINC000550217006    0.5600
     27 O27        -9.8863   -1.3342   51.4784 O.2     1  ZINC000550217006   -0.5200
     28 H28       -12.1040    0.4372   64.2041 H       1  ZINC000550217006    0.0700
     29 H29       -13.5046    1.4973   64.4918 H       1  ZINC000550217006    0.0800
     30 H30       -13.3395    0.6427   62.9393 H       1  ZINC000550217006    0.0700
     31 H31       -12.7100    3.0303   62.7123 H       1  ZINC000550217006    0.0600
     32 H32       -11.4745    2.8249   63.9771 H       1  ZINC000550217006    0.0600
     33 H33       -10.0523    1.9096   64.5963 H       1  ZINC000550217006    0.1300
     34 H34        -8.2201    0.4662   65.3835 H       1  ZINC000550217006    0.1300
     35 H35        -7.2140   -1.1875   63.8635 H       1  ZINC000550217006    0.1300
     36 H36        -8.0372   -1.4024   61.5537 H       1  ZINC000550217006    0.1300
     37 H37        -9.7096   -0.9695   59.9546 H       1  ZINC000550217006    0.0800
     38 H38       -11.1043    0.0615   60.3547 H       1  ZINC000550217006    0.0800
     39 H39        -9.9987    2.0344   59.6687 H       1  ZINC000550217006    0.0700
     40 H40        -8.3896    1.2817   59.7796 H       1  ZINC000550217006    0.0700
     41 H41       -10.3539    0.8057   57.6167 H       1  ZINC000550217006    0.4000
     42 H42       -10.1476   -1.3990   56.2928 H       1  ZINC000550217006    0.1400
     43 H43       -10.2725   -2.0261   53.9297 H       1  ZINC000550217006    0.1500
     44 H44        -6.8490    1.1908   55.4333 H       1  ZINC000550217006    0.1500
     45 H45        -6.5589    1.6723   53.0364 H       1  ZINC000550217006    0.4200
     46 H46        -5.6795   -1.6227   50.7561 H       1  ZINC000550217006    0.1300
     47 H47        -6.1858   -1.9391   52.4353 H       1  ZINC000550217006    0.1000
     48 H48        -7.9180   -1.7524   50.2025 H       1  ZINC000550217006    0.4200
@<TRIPOS>BOND
     1     1     2    1
     2     1    28    1
     3     1    29    1
     4     1    30    1
     5     2     3    1
     6     2    31    1
     7     2    32    1
     8     3     4    1
     9     4     9   ar
    10     4     5   ar
    11     5     6   ar
    12     5    33    1
    13     6     7   ar
    14     6    34    1
    15     7     8   ar
    16     7    35    1
    17     8     9   ar
    18     8    36    1
    19     9    10    1
    20    10    11    1
    21    10    37    1
    22    10    38    1
    23    11    12    1
    24    11    39    1
    25    11    40    1
    26    12    13   am
    27    12    41    1
    28    13    14    2
    29    13    15    1
    30    15    20   ar
    31    15    16   ar
    32    16    17   ar
    33    16    42    1
    34    17    18   ar
    35    17    43    1
    36    18    26    1
    37    18    19   ar
    38    19    20   ar
    39    19    21    1
    40    20    44    1
    41    21    22   am
    42    21    45    1
    43    22    23    2
    44    22    24    1
    45    24    25    1
    46    24    46    1
    47    24    47    1
    48    25    26   am
    49    25    48    1
    50    26    27    2
@<TRIPOS>SUBSTRUCTURE
     1 ZINC000550217006        1 TEMP              0 ****  ****    0 ROOT


##########                                Name:    ZINC000523863446
##########                DOCK_Rotatable_Bonds:                  10
##########                         Heavy_Atoms:                  29
##########                    Molecular_Weight:             396.533
##########                DOCK_Rotatable_Bonds:                  10
##########                       Formal_Charge:          -0.0200008
##########                     HBond_Acceptors:                   6
##########                        HBond_Donors:                   1
##########                         Heavy_Atoms:                  29
##########                          Grid_Score:          -33.337681
##########                     Grid_vdw_energy:          -34.190174
##########                      Grid_es_energy:            0.852495
##########           Internal_energy_repulsive:           17.252153

@<TRIPOS>MOLECULE
ZINC000523863446
 61 63 1 0 0
SMALL
USER_CHARGES


@<TRIPOS>ATOM
      1 C1         -6.2303   -0.7999   51.6919 C.3     1  ZINC000523863446   -0.1700
      2 C2         -7.3298    0.2033   52.0464 C.3     1  ZINC000523863446    0.1500
      3 H3         -7.5618    0.8119   51.1724 H       1  ZINC000523863446    0.1300
      4 C4         -8.5658   -0.5397   52.4837 C.2     1  ZINC000523863446    0.5100
      5 O5         -8.4850   -1.6982   52.8333 O.2     1  ZINC000523863446   -0.5100
      6 N6         -9.7609    0.0832   52.4861 N.am    1  ZINC000523863446   -0.6000
      7 C7         -9.8589    1.4820   52.0619 C.3     1  ZINC000523863446    0.0700
      8 C8        -10.9623   -0.6387   52.9129 C.3     1  ZINC000523863446    0.1000
      9 C9        -11.1140   -0.5219   54.4076 C.2     1  ZINC000523863446    0.5000
     10 O10       -10.9962    0.5582   54.9466 O.2     1  ZINC000523863446   -0.5200
     11 N11       -11.3805   -1.6177   55.1455 N.am    1  ZINC000523863446   -0.7200
     12 C12       -11.5297   -1.5039   56.5985 C.3     1  ZINC000523863446    0.1900
     13 H13       -11.6925   -0.4599   56.8664 H       1  ZINC000523863446    0.1000
     14 C14       -10.2601   -2.0141   57.2831 C.3     1  ZINC000523863446   -0.1200
     15 C15       -10.2438   -1.5479   58.7402 C.3     1  ZINC000523863446   -0.0900
     16 C16       -10.2132   -2.7664   59.6651 C.3     1  ZINC000523863446   -0.1200
     17 C17       -10.1969   -2.3002   61.1223 C.3     1  ZINC000523863446   -0.1200
     18 C18        -8.9551   -1.4412   61.3691 C.3     1  ZINC000523863446   -0.1200
     19 C19        -8.9856   -0.2229   60.4442 C.3     1  ZINC000523863446   -0.1200
     20 C20        -9.0019   -0.6890   58.9870 C.3     1  ZINC000523863446   -0.1100
     21 C21       -12.7087   -2.3277   57.0484 C.ar    1  ZINC000523863446   -0.0900
     22 C22       -12.8097   -3.6537   56.6712 C.ar    1  ZINC000523863446   -0.1100
     23 C23       -13.8912   -4.4093   57.0840 C.ar    1  ZINC000523863446   -0.1200
     24 C24       -14.8715   -3.8389   57.8743 C.ar    1  ZINC000523863446   -0.1200
     25 C25       -14.7701   -2.5132   58.2523 C.ar    1  ZINC000523863446   -0.1200
     26 C26       -13.6864   -1.7588   57.8431 C.ar    1  ZINC000523863446   -0.1000
     27 N27        -6.8690    1.0683   53.1353 N.pl3   1  ZINC000523863446   -0.3600
     28 C28        -6.1221    2.1842   53.0008 C.2     1  ZINC000523863446    0.0600
     29 C29        -5.9115    2.6910   54.2378 C.2     1  ZINC000523863446   -0.2700
     30 C30        -6.5515    1.8562   55.1596 C.2     1  ZINC000523863446    0.0500
     31 N31        -7.1310    0.8866   54.4993 N.2     1  ZINC000523863446   -0.2900
     32 H32        -5.9982   -1.4085   52.5659 H       1  ZINC000523863446    0.0700
     33 H33        -6.5731   -1.4434   50.8817 H       1  ZINC000523863446    0.1000
     34 H34        -5.3363   -0.2625   51.3756 H       1  ZINC000523863446    0.0800
     35 H35       -10.0439    1.5242   50.9886 H       1  ZINC000523863446    0.0700
     36 H36       -10.6798    1.9656   52.5914 H       1  ZINC000523863446    0.0800
     37 H37        -8.9258    1.9970   52.2902 H       1  ZINC000523863446    0.0800
     38 H38       -11.8370   -0.2093   52.4242 H       1  ZINC000523863446    0.1100
     39 H39       -10.8716   -1.6895   52.6378 H       1  ZINC000523863446    0.1100
     40 H40       -11.4735   -2.4818   54.7146 H       1  ZINC000523863446    0.4000
     41 H41       -10.2421   -3.1035   57.2499 H       1  ZINC000523863446    0.0800
     42 H42        -9.3851   -1.6203   56.7659 H       1  ZINC000523863446    0.0700
     43 H43       -11.1386   -0.9598   58.9436 H       1  ZINC000523863446    0.0700
     44 H44       -11.0979   -3.3783   59.4893 H       1  ZINC000523863446    0.0600
     45 H45        -9.3183   -3.3545   59.4617 H       1  ZINC000523863446    0.0600
     46 H46       -11.0918   -1.7121   61.3257 H       1  ZINC000523863446    0.0600
     47 H47       -10.1751   -3.1682   61.7812 H       1  ZINC000523863446    0.0600
     48 H48        -8.9435   -1.1092   62.4072 H       1  ZINC000523863446    0.0600
     49 H49        -8.0601   -2.0294   61.1657 H       1  ZINC000523863446    0.0600
     50 H50        -9.8806    0.3653   60.6476 H       1  ZINC000523863446    0.0600
     51 H51        -8.1009    0.3891   60.6201 H       1  ZINC000523863446    0.0600
     52 H52        -8.1071   -1.2771   58.7837 H       1  ZINC000523863446    0.0600
     53 H53        -9.0237    0.1790   58.3282 H       1  ZINC000523863446    0.0600
     54 H54       -12.0438   -4.0993   56.0538 H       1  ZINC000523863446    0.1200
     55 H55       -13.9704   -5.4451   56.7887 H       1  ZINC000523863446    0.1200
     56 H56       -15.7168   -4.4291   58.1962 H       1  ZINC000523863446    0.1200
     57 H57       -15.5361   -2.0675   58.8695 H       1  ZINC000523863446    0.1200
     58 H58       -13.6071   -0.7229   58.1383 H       1  ZINC000523863446    0.1200
     59 H59        -5.7575    2.5984   52.0725 H       1  ZINC000523863446    0.1700
     60 H60        -5.3481    3.5822   54.4718 H       1  ZINC000523863446    0.1500
     61 H61        -6.5687    1.9915   56.2310 H       1  ZINC000523863446    0.1800
@<TRIPOS>BOND
     1     1     2    1
     2     1    32    1
     3     1    33    1
     4     1    34    1
     5     2     3    1
     6     2     4    1
     7     2    27    1
     8     4     5    2
     9     4     6   am
    10     6     7    1
    11     6     8    1
    12     7    35    1
    13     7    36    1
    14     7    37    1
    15     8     9    1
    16     8    38    1
    17     8    39    1
    18     9    10    2
    19     9    11   am
    20    11    12    1
    21    11    40    1
    22    12    13    1
    23    12    14    1
    24    12    21    1
    25    14    15    1
    26    14    41    1
    27    14    42    1
    28    15    20    1
    29    15    16    1
    30    15    43    1
    31    16    17    1
    32    16    44    1
    33    16    45    1
    34    17    18    1
    35    17    46    1
    36    17    47    1
    37    18    19    1
    38    18    48    1
    39    18    49    1
    40    19    20    1
    41    19    50    1
    42    19    51    1
    43    20    52    1
    44    20    53    1
    45    21    26   ar
    46    21    22   ar
    47    22    23   ar
    48    22    54    1
    49    23    24   ar
    50    23    55    1
    51    24    25   ar
    52    24    56    1
    53    25    26   ar
    54    25    57    1
    55    26    58    1
    56    27    31    1
    57    27    28    1
    58    28    29    2
    59    28    59    1
    60    29    30    1
    61    29    60    1
    62    30    31    2
    63    30    61    1
@<TRIPOS>SUBSTRUCTURE
     1 ZINC000523863446        1 TEMP              0 ****  ****    0 ROOT


##########                                Name:    ZINC000672622940
##########                DOCK_Rotatable_Bonds:                   7
##########                         Heavy_Atoms:                  30
##########                    Molecular_Weight:             416.523
##########                DOCK_Rotatable_Bonds:                   7
##########                       Formal_Charge:          -0.0100002
##########                     HBond_Acceptors:                   9
##########                        HBond_Donors:                   1
##########                         Heavy_Atoms:                  30
##########                          Grid_Score:          -33.319145
##########                     Grid_vdw_energy:          -31.944382
##########                      Grid_es_energy:           -1.374763
##########           Internal_energy_repulsive:           19.721237

@<TRIPOS>MOLECULE
ZINC000672622940
 62 65 1 0 0
SMALL
USER_CHARGES


@<TRIPOS>ATOM
      1 C1         -9.9961    1.2590   51.9208 C.3     1  ZINC000672622940    0.0800
      2 N2         -9.7350   -0.1034   52.3919 N.am    1  ZINC000672622940   -0.6200
      3 C3        -10.0579   -1.2485   51.5371 C.3     1  ZINC000672622940    0.0700
      4 C4         -9.1977   -0.3032   53.6117 C.2     1  ZINC000672622940    0.5200
      5 O5         -8.9801   -1.4310   54.0011 O.2     1  ZINC000672622940   -0.5300
      6 C6         -8.8672    0.8747   54.4917 C.3     1  ZINC000672622940   -0.1000
      7 H7         -9.5574    1.6913   54.2800 H       1  ZINC000672622940    0.1000
      8 C8         -8.9957    0.4661   55.9605 C.3     1  ZINC000672622940   -0.1300
      9 C9         -8.6602    1.6619   56.8538 C.3     1  ZINC000672622940   -0.1100
     10 C10        -7.2272    2.1203   56.5755 C.3     1  ZINC000672622940   -0.1300
     11 C11        -7.0988    2.5290   55.1066 C.3     1  ZINC000672622940    0.1400
     12 H12        -7.7890    3.3456   54.8950 H       1  ZINC000672622940    0.1000
     13 N13        -5.7266    2.9679   54.8401 N.am    1  ZINC000672622940   -0.6900
     14 C14        -5.4742    3.8056   53.8149 C.2     1  ZINC000672622940    0.5100
     15 O15        -6.3837    4.1976   53.1136 O.2     1  ZINC000672622940   -0.5100
     16 C16        -4.0743    4.2519   53.5420 C.2     1  ZINC000672622940    0.5100
     17 O17        -3.5662    5.1117   54.2312 O.2     1  ZINC000672622940   -0.5200
     18 N18        -3.3760    3.6993   52.5302 N.am    1  ZINC000672622940   -0.5800
     19 C19        -3.9796    2.6616   51.6832 C.3     1  ZINC000672622940    0.0700
     20 C20        -3.8534    3.0870   50.2169 C.3     1  ZINC000672622940   -0.1200
     21 C21        -2.3856    3.3817   49.8999 C.3     1  ZINC000672622940    0.0000
     22 C22        -2.2529    3.7676   48.4492 C.2     1  ZINC000672622940    0.2000
     23 N23        -1.9975    4.9606   47.9861 N.2     1  ZINC000672622940   -0.2800
     24 N24        -1.9535    4.9259   46.7015 N.2     1  ZINC000672622940   -0.2800
     25 C25        -2.1784    3.7071   46.2874 C.2     1  ZINC000672622940    0.1500
     26 C26        -2.2921    2.8619   45.0371 C.3     1  ZINC000672622940   -0.0400
     27 C27        -2.1678    1.4081   45.5475 C.3     1  ZINC000672622940   -0.1300
     28 C28        -2.6431    1.5449   47.0104 C.3     1  ZINC000672622940    0.1000
     29 N29        -2.3707    2.9386   47.3826 N.pl3   1  ZINC000672622940   -0.4900
     30 C30        -1.8928    4.5322   50.7808 C.3     1  ZINC000672622940   -0.1200
     31 C31        -1.9989    4.1276   52.2495 C.3     1  ZINC000672622940    0.1100
     32 C32        -7.4343    1.3331   54.2133 C.3     1  ZINC000672622940   -0.1100
     33 H33       -11.0030    1.5576   52.2125 H       1  ZINC000672622940    0.0600
     34 H34        -9.2717    1.9420   52.3645 H       1  ZINC000672622940    0.0800
     35 H35        -9.9078    1.2911   50.8349 H       1  ZINC000672622940    0.0700
     36 H36        -9.1958   -1.4932   50.9166 H       1  ZINC000672622940    0.0600
     37 H37       -10.3126   -2.1062   52.1597 H       1  ZINC000672622940    0.0800
     38 H38       -10.9054   -0.9981   50.8991 H       1  ZINC000672622940    0.0700
     39 H39       -10.0166    0.1395   56.1588 H       1  ZINC000672622940    0.0800
     40 H40        -8.3054   -0.3506   56.1721 H       1  ZINC000672622940    0.0700
     41 H41        -9.3504    2.4786   56.6422 H       1  ZINC000672622940    0.0700
     42 H42        -8.7517    1.3707   57.9002 H       1  ZINC000672622940    0.0700
     43 H43        -6.9881    2.9723   57.2119 H       1  ZINC000672622940    0.0700
     44 H44        -6.5369    1.3037   56.7870 H       1  ZINC000672622940    0.0700
     45 H45        -4.9999    2.6556   55.4014 H       1  ZINC000672622940    0.4100
     46 H46        -3.4583    1.7166   51.8357 H       1  ZINC000672622940    0.0700
     47 H47        -5.0324    2.5463   51.9409 H       1  ZINC000672622940    0.1400
     48 H48        -4.2103    2.2832   49.5729 H       1  ZINC000672622940    0.0800
     49 H49        -4.4497    3.9831   50.0455 H       1  ZINC000672622940    0.0800
     50 H50        -1.7861    2.4926   50.0954 H       1  ZINC000672622940    0.0900
     51 H51        -3.2593    3.0167   44.5589 H       1  ZINC000672622940    0.1000
     52 H52        -1.4823    3.0938   44.3453 H       1  ZINC000672622940    0.1000
     53 H53        -2.8212    0.7405   44.9860 H       1  ZINC000672622940    0.1100
     54 H54        -1.1334    1.0668   45.5039 H       1  ZINC000672622940    0.0900
     55 H55        -3.7100    1.3331   47.0814 H       1  ZINC000672622940    0.1000
     56 H56        -2.0802    0.8690   47.6543 H       1  ZINC000672622940    0.1000
     57 H57        -0.8542    4.7572   50.5381 H       1  ZINC000672622940    0.0800
     58 H58        -2.5076    5.4148   50.6040 H       1  ZINC000672622940    0.0800
     59 H59        -1.7431    4.9777   52.8821 H       1  ZINC000672622940    0.1000
     60 H60        -1.3172    3.3013   52.4512 H       1  ZINC000672622940    0.0800
     61 H61        -6.7440    0.5164   54.4249 H       1  ZINC000672622940    0.0800
     62 H62        -7.3427    1.6243   53.1669 H       1  ZINC000672622940    0.0800
@<TRIPOS>BOND
     1     1     2    1
     2     1    33    1
     3     1    34    1
     4     1    35    1
     5     2     3    1
     6     2     4   am
     7     3    36    1
     8     3    37    1
     9     3    38    1
    10     4     5    2
    11     4     6    1
    12     6     7    1
    13     6    32    1
    14     6     8    1
    15     8     9    1
    16     8    39    1
    17     8    40    1
    18     9    10    1
    19     9    41    1
    20     9    42    1
    21    10    11    1
    22    10    43    1
    23    10    44    1
    24    11    12    1
    25    11    13    1
    26    11    32    1
    27    13    14   am
    28    13    45    1
    29    14    15    2
    30    14    16    1
    31    16    17    2
    32    16    18   am
    33    18    31    1
    34    18    19    1
    35    19    20    1
    36    19    46    1
    37    19    47    1
    38    20    21    1
    39    20    48    1
    40    20    49    1
    41    21    22    1
    42    21    30    1
    43    21    50    1
    44    22    29    1
    45    22    23    2
    46    23    24    1
    47    24    25    2
    48    25    29    1
    49    25    26    1
    50    26    27    1
    51    26    51    1
    52    26    52    1
    53    27    28    1
    54    27    53    1
    55    27    54    1
    56    28    29    1
    57    28    55    1
    58    28    56    1
    59    30    31    1
    60    30    57    1
    61    30    58    1
    62    31    59    1
    63    31    60    1
    64    32    61    1
    65    32    62    1
@<TRIPOS>SUBSTRUCTURE
     1 ZINC000672622940        1 TEMP              0 ****  ****    0 ROOT


##########                                Name:    ZINC001120957943
##########                DOCK_Rotatable_Bonds:                   4
##########                         Heavy_Atoms:                  27
##########                    Molecular_Weight:             396.802
##########                DOCK_Rotatable_Bonds:                   4
##########                       Formal_Charge:          -0.0199996
##########                     HBond_Acceptors:                  10
##########                        HBond_Donors:                   0
##########                         Heavy_Atoms:                  27
##########                          Grid_Score:          -33.245102
##########                     Grid_vdw_energy:          -33.172436
##########                      Grid_es_energy:           -0.072668
##########           Internal_energy_repulsive:           10.992976

@<TRIPOS>MOLECULE
ZINC001120957943
 43 46 1 0 0
SMALL
USER_CHARGES


@<TRIPOS>ATOM
      1 C1         -1.3822    2.7907   52.1403 C.3     1  ZINC001120957943    0.0900
      2 N2         -2.6292    2.7333   51.3736 N.pl3   1  ZINC001120957943   -0.6000
      3 C3         -3.8999    3.0810   52.0146 C.3     1  ZINC001120957943    0.2200
      4 C4         -4.8643    1.9316   51.8743 C.2     1  ZINC001120957943    0.1600
      5 N5         -4.7646    0.9305   51.0377 N.2     1  ZINC001120957943   -0.2500
      6 N6         -5.7654    0.1328   51.1921 N.2     1  ZINC001120957943   -0.2800
      7 C7         -6.5420    0.5883   52.1276 C.2     1  ZINC001120957943    0.1700
      8 C8         -7.8273   -0.0013   52.6514 C.3     1  ZINC001120957943   -0.0300
      9 C9         -8.5617    1.0857   53.4477 C.3     1  ZINC001120957943   -0.1300
     10 C10        -7.5852    1.7422   54.4278 C.3     1  ZINC001120957943   -0.1500
     11 H11        -7.0715    0.9698   55.0004 H       1  ZINC001120957943    0.1300
     12 C12        -8.3577    2.6550   55.3821 C.3     1  ZINC001120957943    0.4600
     13 F13        -9.0000    3.6590   54.6495 F       1  ZINC001120957943   -0.1700
     14 F14        -9.3106    1.9031   56.0778 F       1  ZINC001120957943   -0.1800
     15 F15        -7.4688    3.2378   56.2918 F       1  ZINC001120957943   -0.1800
     16 C16        -6.5560    2.5708   53.6503 C.3     1  ZINC001120957943    0.1100
     17 N17        -5.9886    1.7379   52.5904 N.pl3   1  ZINC001120957943   -0.4700
     18 C18        -2.6069    2.3496   50.0408 C.ar    1  ZINC001120957943    0.3700
     19 C19        -3.2518    3.1426   49.0757 C.ar    1  ZINC001120957943    0.0500
     20 N20        -3.2408    2.7960   47.8111 N.ar    1  ZINC001120957943   -0.3900
     21 C21        -2.6106    1.6772   47.4320 C.ar    1  ZINC001120957943    0.0400
     22 C22        -2.5838    1.2841   46.0833 C.ar    1  ZINC001120957943   -0.0600
     23 C23        -1.9348    0.1412   45.7255 C.ar    1  ZINC001120957943   -0.0400
     24 Cl24       -1.9048   -0.3397   44.0577 Cl      1  ZINC001120957943   -0.0600
     25 C25        -1.2936   -0.6478   46.6801 C.ar    1  ZINC001120957943   -0.0800
     26 C26        -1.2994   -0.2975   47.9951 C.ar    1  ZINC001120957943   -0.0800
     27 C27        -1.9593    0.8750   48.4016 C.ar    1  ZINC001120957943    0.1400
     28 N28        -1.9758    1.2458   49.6878 N.ar    1  ZINC001120957943   -0.4700
     29 H29        -1.1999    1.8243   52.6106 H       1  ZINC001120957943    0.0700
     30 H30        -0.5555    3.0311   51.4719 H       1  ZINC001120957943    0.0800
     31 H31        -1.4633    3.5593   52.9089 H       1  ZINC001120957943    0.0700
     32 H32        -3.7296    3.2856   53.0715 H       1  ZINC001120957943    0.1200
     33 H33        -4.3179    3.9665   51.5358 H       1  ZINC001120957943    0.1000
     34 H34        -8.4481   -0.3296   51.8177 H       1  ZINC001120957943    0.1100
     35 H35        -7.6058   -0.8476   53.3016 H       1  ZINC001120957943    0.1000
     36 H36        -8.9507    1.8387   52.7623 H       1  ZINC001120957943    0.0900
     37 H37        -9.3862    0.6366   54.0015 H       1  ZINC001120957943    0.1000
     38 H38        -7.0433    3.4427   53.2137 H       1  ZINC001120957943    0.1000
     39 H39        -5.7615    2.8924   54.3237 H       1  ZINC001120957943    0.1100
     40 H40        -3.7613    4.0454   49.3785 H       1  ZINC001120957943    0.1700
     41 H41        -3.0760    1.8856   45.3335 H       1  ZINC001120957943    0.1500
     42 H42        -0.7858   -1.5497   46.3715 H       1  ZINC001120957943    0.1400
     43 H43        -0.7991   -0.9182   48.7237 H       1  ZINC001120957943    0.1500
@<TRIPOS>BOND
     1     1     2    1
     2     1    29    1
     3     1    30    1
     4     1    31    1
     5     2     3    1
     6     2    18    1
     7     3     4    1
     8     3    32    1
     9     3    33    1
    10     4    17    1
    11     4     5    2
    12     5     6    1
    13     6     7    2
    14     7    17    1
    15     7     8    1
    16     8     9    1
    17     8    34    1
    18     8    35    1
    19     9    10    1
    20     9    36    1
    21     9    37    1
    22    10    11    1
    23    10    12    1
    24    10    16    1
    25    12    13    1
    26    12    14    1
    27    12    15    1
    28    16    17    1
    29    16    38    1
    30    16    39    1
    31    18    28   ar
    32    18    19   ar
    33    19    20   ar
    34    19    40    1
    35    20    21   ar
    36    21    27   ar
    37    21    22   ar
    38    22    23   ar
    39    22    41    1
    40    23    24    1
    41    23    25   ar
    42    25    26   ar
    43    25    42    1
    44    26    27   ar
    45    26    43    1
    46    27    28   ar
@<TRIPOS>SUBSTRUCTURE
     1 ZINC001120957943        1 TEMP              0 ****  ****    0 ROOT


##########                                Name:    ZINC000621594459
##########                DOCK_Rotatable_Bonds:                  10
##########                         Heavy_Atoms:                  25
##########                    Molecular_Weight:             389.497
##########                DOCK_Rotatable_Bonds:                  10
##########                       Formal_Charge:         -7.7486e-07
##########                     HBond_Acceptors:                  10
##########                        HBond_Donors:                   3
##########                         Heavy_Atoms:                  25
##########                          Grid_Score:          -33.173931
##########                     Grid_vdw_energy:          -30.233093
##########                      Grid_es_energy:           -2.940837
##########           Internal_energy_repulsive:            6.379287

@<TRIPOS>MOLECULE
ZINC000621594459
 48 49 1 0 0
SMALL
USER_CHARGES


@<TRIPOS>ATOM
      1 C1          1.6859    3.7973   56.0364 C.3     1  ZINC000621594459   -0.1600
      2 C2          2.9807    3.0444   55.7236 C.3     1  ZINC000621594459    0.1300
      3 C3          3.3135    2.0999   56.8803 C.3     1  ZINC000621594459   -0.1800
      4 N4          2.8092    2.2682   54.4931 N.am    1  ZINC000621594459   -1.1100
      5 S5          4.0535    2.1527   53.4067 S.o2    1  ZINC000621594459    2.6200
      6 O6          4.2485    3.4855   52.9542 O.2     1  ZINC000621594459   -0.9500
      7 O7          5.0742    1.4628   54.1150 O.2     1  ZINC000621594459   -0.9400
      8 C8          3.3940    1.1171   52.0714 C.3     1  ZINC000621594459   -0.6600
      9 C9          2.1326    1.7663   51.4981 C.3     1  ZINC000621594459    0.1300
     10 N10         1.5905    0.9215   50.4311 N.am    1  ZINC000621594459   -0.7200
     11 C11         0.3557    1.1585   49.9457 C.2     1  ZINC000621594459    0.5600
     12 O12        -0.3075    2.0741   50.3922 O.2     1  ZINC000621594459   -0.5200
     13 C13        -0.1922    0.3048   48.8701 C.ar    1  ZINC000621594459   -0.1500
     14 C14        -0.1127   -1.0850   48.9693 C.ar    1  ZINC000621594459   -0.0300
     15 C15        -0.6264   -1.8760   47.9622 C.ar    1  ZINC000621594459   -0.1400
     16 C16        -1.2189   -1.2942   46.8557 C.ar    1  ZINC000621594459    0.0100
     17 C17        -1.3005    0.0832   46.7510 C.ar    1  ZINC000621594459   -0.6800
     18 S18        -2.0566    0.8140   45.3371 S.o2    1  ZINC000621594459    2.7000
     19 O19        -2.2006   -0.2241   44.3774 O.2     1  ZINC000621594459   -0.9400
     20 O20        -3.1493    1.5838   45.8193 O.2     1  ZINC000621594459   -0.9500
     21 N21        -0.9704    1.8906   44.7019 N.am    1  ZINC000621594459   -1.0900
     22 C22         0.3411    1.4244   44.2446 C.3     1  ZINC000621594459    0.0800
     23 C23         1.4410    2.4729   44.0669 C.3     1  ZINC000621594459   -0.1800
     24 C24         1.5013    1.4923   45.2397 C.3     1  ZINC000621594459   -0.1900
     25 C25        -0.7964    0.8852   47.7536 C.ar    1  ZINC000621594459    0.0400
     26 H26         1.8135    4.3749   56.9519 H       1  ZINC000621594459    0.0700
     27 H27         1.4488    4.4702   55.2123 H       1  ZINC000621594459    0.0700
     28 H28         0.8730    3.0831   56.1677 H       1  ZINC000621594459    0.0600
     29 H29         3.7936    3.7586   55.5923 H       1  ZINC000621594459    0.0900
     30 H30         2.5006    1.3857   57.0116 H       1  ZINC000621594459    0.0700
     31 H31         4.2358    1.5634   56.6575 H       1  ZINC000621594459    0.0600
     32 H32         3.4411    2.6774   57.7959 H       1  ZINC000621594459    0.0700
     33 H33         1.9665    1.8218   54.3148 H       1  ZINC000621594459    0.4200
     34 H34         4.1418    1.0189   51.2846 H       1  ZINC000621594459    0.1400
     35 H35         3.1482    0.1306   52.4644 H       1  ZINC000621594459    0.1400
     36 H36         1.3894    1.8759   52.2879 H       1  ZINC000621594459    0.0900
     37 H37         2.3808    2.7477   51.0940 H       1  ZINC000621594459    0.0900
     38 H38         2.1201    0.1916   50.0739 H       1  ZINC000621594459    0.4000
     39 H39         0.3501   -1.5404   49.8323 H       1  ZINC000621594459    0.1300
     40 H40        -0.5656   -2.9516   48.0378 H       1  ZINC000621594459    0.1400
     41 H41        -1.6191   -1.9178   46.0701 H       1  ZINC000621594459    0.1500
     42 H42        -1.2024    2.8299   44.6326 H       1  ZINC000621594459    0.4200
     43 H43         0.3252    0.5877   43.5462 H       1  ZINC000621594459    0.1400
     44 H44         2.1491    2.3263   43.2512 H       1  ZINC000621594459    0.1100
     45 H45         1.1889    3.5096   44.2901 H       1  ZINC000621594459    0.1000
     46 H46         1.2888    1.8839   46.2346 H       1  ZINC000621594459    0.1000
     47 H47         2.2490    0.7005   45.1957 H       1  ZINC000621594459    0.1000
     48 H48        -0.8611    1.9601   47.6708 H       1  ZINC000621594459    0.1600
@<TRIPOS>BOND
     1     1     2    1
     2     1    26    1
     3     1    27    1
     4     1    28    1
     5     2     3    1
     6     2     4    1
     7     2    29    1
     8     3    30    1
     9     3    31    1
    10     3    32    1
    11     4     5   am
    12     4    33    1
    13     5     6    2
    14     5     7    2
    15     5     8    1
    16     8     9    1
    17     8    34    1
    18     8    35    1
    19     9    10    1
    20     9    36    1
    21     9    37    1
    22    10    11   am
    23    10    38    1
    24    11    12    2
    25    11    13    1
    26    13    25   ar
    27    13    14   ar
    28    14    15   ar
    29    14    39    1
    30    15    16   ar
    31    15    40    1
    32    16    17   ar
    33    16    41    1
    34    17    18    1
    35    17    25   ar
    36    18    19    2
    37    18    20    2
    38    18    21   am
    39    21    22    1
    40    21    42    1
    41    22    24    1
    42    22    23    1
    43    22    43    1
    44    23    24    1
    45    23    44    1
    46    23    45    1
    47    24    46    1
    48    24    47    1
    49    25    48    1
@<TRIPOS>SUBSTRUCTURE
     1 ZINC000621594459        1 TEMP              0 ****  ****    0 ROOT


##########                                Name:    ZINC000124554441
##########                DOCK_Rotatable_Bonds:                   9
##########                         Heavy_Atoms:                  26
##########                    Molecular_Weight:             375.898
##########                DOCK_Rotatable_Bonds:                   9
##########                       Formal_Charge:         -0.00999991
##########                     HBond_Acceptors:                   6
##########                        HBond_Donors:                   1
##########                         Heavy_Atoms:                  26
##########                          Grid_Score:          -33.160294
##########                     Grid_vdw_energy:          -31.223717
##########                      Grid_es_energy:           -1.936578
##########           Internal_energy_repulsive:           11.664209

@<TRIPOS>MOLECULE
ZINC000124554441
 52 53 1 0 0
SMALL
USER_CHARGES


@<TRIPOS>ATOM
      1 C1         -2.7391    1.9119   46.1822 C.3     1  ZINC000124554441   -0.1500
      2 C2         -2.1753    1.8938   47.6045 C.3     1  ZINC000124554441   -0.1300
      3 C3         -3.3028    2.1610   48.6035 C.3     1  ZINC000124554441   -0.1200
      4 C4         -2.7564    2.0581   50.0289 C.3     1  ZINC000124554441   -0.1200
      5 C5         -3.8967    2.2625   51.0283 C.3     1  ZINC000124554441   -0.1300
      6 C6         -4.9265    1.1431   50.8630 C.3     1  ZINC000124554441    0.1200
      7 N7         -5.6304    0.9361   52.1310 N.am    1  ZINC000124554441   -0.7300
      8 C8         -6.8937    0.4664   52.1317 C.2     1  ZINC000124554441    0.5200
      9 O9         -7.4482    0.2164   51.0824 O.2     1  ZINC000124554441   -0.5300
     10 C10        -7.6172    0.2517   53.4361 C.3     1  ZINC000124554441   -0.1200
     11 H11        -6.9624   -0.2704   54.1336 H       1  ZINC000124554441    0.1000
     12 C12        -8.0174    1.6056   54.0270 C.3     1  ZINC000124554441   -0.1000
     13 C13        -8.7232    1.3904   55.3677 C.3     1  ZINC000124554441   -0.1400
     14 C14        -9.9947    0.5656   55.1442 C.3     1  ZINC000124554441    0.0900
     15 N15        -9.6362   -0.6759   54.4449 N.am    1  ZINC000124554441   -0.6000
     16 C16        -9.9980   -1.8743   54.9441 C.2     1  ZINC000124554441    0.5600
     17 O17        -9.6954   -2.8941   54.3561 O.2     1  ZINC000124554441   -0.5200
     18 C18       -10.7634   -1.9486   56.2077 C.ar    1  ZINC000124554441   -0.0900
     19 C19       -12.1572   -2.0246   56.1758 C.ar    1  ZINC000124554441   -0.0900
     20 C20       -12.8710   -2.0938   57.3516 C.ar    1  ZINC000124554441   -0.0600
     21 C21       -12.2010   -2.0876   58.5770 C.ar    1  ZINC000124554441    0.0100
     22 C22       -12.9429   -2.1594   59.7996 C.1     1  ZINC000124554441    0.2400
     23 N23       -13.5317   -2.2166   60.7696 N.1     1  ZINC000124554441   -0.3800
     24 C24       -10.8052   -2.0114   58.6094 C.ar    1  ZINC000124554441    0.0000
     25 Cl25       -9.9709   -2.0040   60.1318 Cl      1  ZINC000124554441   -0.0400
     26 C26       -10.0915   -1.9483   57.4314 C.ar    1  ZINC000124554441   -0.0600
     27 C27        -8.8758   -0.5866   53.1908 C.3     1  ZINC000124554441    0.1200
     28 H28        -3.5021    1.1397   46.0841 H       1  ZINC000124554441    0.0500
     29 H29        -3.1811    2.8873   45.9790 H       1  ZINC000124554441    0.0500
     30 H30        -1.9358    1.7216   45.4705 H       1  ZINC000124554441    0.0500
     31 H31        -1.7333    0.9184   47.8078 H       1  ZINC000124554441    0.0600
     32 H32        -1.4123    2.6661   47.7026 H       1  ZINC000124554441    0.0600
     33 H33        -3.7041    3.1611   48.4396 H       1  ZINC000124554441    0.0600
     34 H34        -4.0942    1.4246   48.4637 H       1  ZINC000124554441    0.0600
     35 H35        -2.3146    1.0728   50.1784 H       1  ZINC000124554441    0.0700
     36 H36        -1.9964    2.8241   50.1829 H       1  ZINC000124554441    0.0700
     37 H37        -3.4985    2.2429   52.0428 H       1  ZINC000124554441    0.0700
     38 H38        -4.3735    3.2250   50.8436 H       1  ZINC000124554441    0.0700
     39 H39        -5.6436    1.4203   50.0904 H       1  ZINC000124554441    0.0700
     40 H40        -4.4193    0.2225   50.5746 H       1  ZINC000124554441    0.0700
     41 H41        -5.1874    1.1372   52.9702 H       1  ZINC000124554441    0.4000
     42 H42        -7.1253    2.2131   54.1795 H       1  ZINC000124554441    0.0800
     43 H43        -8.6914    2.1169   53.3397 H       1  ZINC000124554441    0.0800
     44 H44        -8.0583    0.8572   56.0474 H       1  ZINC000124554441    0.0700
     45 H45        -8.9871    2.3560   55.7990 H       1  ZINC000124554441    0.0900
     46 H46       -10.4480    0.3253   56.1060 H       1  ZINC000124554441    0.1000
     47 H47       -10.6985    1.1361   54.5384 H       1  ZINC000124554441    0.0800
     48 H48       -12.6759   -2.0288   55.2286 H       1  ZINC000124554441    0.1500
     49 H49       -13.9491   -2.1526   57.3261 H       1  ZINC000124554441    0.1500
     50 H50        -9.0135   -1.8895   57.4556 H       1  ZINC000124554441    0.1500
     51 H51        -9.4880   -0.1100   52.4253 H       1  ZINC000124554441    0.0800
     52 H52        -8.5914   -1.5869   52.8639 H       1  ZINC000124554441    0.1000
@<TRIPOS>BOND
     1     1     2    1
     2     1    28    1
     3     1    29    1
     4     1    30    1
     5     2     3    1
     6     2    31    1
     7     2    32    1
     8     3     4    1
     9     3    33    1
    10     3    34    1
    11     4     5    1
    12     4    35    1
    13     4    36    1
    14     5     6    1
    15     5    37    1
    16     5    38    1
    17     6     7    1
    18     6    39    1
    19     6    40    1
    20     7     8   am
    21     7    41    1
    22     8     9    2
    23     8    10    1
    24    10    11    1
    25    10    27    1
    26    10    12    1
    27    12    13    1
    28    12    42    1
    29    12    43    1
    30    13    14    1
    31    13    44    1
    32    13    45    1
    33    14    15    1
    34    14    46    1
    35    14    47    1
    36    15    16   am
    37    15    27    1
    38    16    17    2
    39    16    18    1
    40    18    26   ar
    41    18    19   ar
    42    19    20   ar
    43    19    48    1
    44    20    21   ar
    45    20    49    1
    46    21    22    1
    47    21    24   ar
    48    22    23    3
    49    24    25    1
    50    24    26   ar
    51    26    50    1
    52    27    51    1
    53    27    52    1
@<TRIPOS>SUBSTRUCTURE
     1 ZINC000124554441        1 TEMP              0 ****  ****    0 ROOT


##########                                Name:    ZINC000179496896
##########                DOCK_Rotatable_Bonds:                   8
##########                         Heavy_Atoms:                  27
##########                    Molecular_Weight:             396.504
##########                DOCK_Rotatable_Bonds:                   8
##########                       Formal_Charge:          0.00999944
##########                     HBond_Acceptors:                   8
##########                        HBond_Donors:                   1
##########                         Heavy_Atoms:                  27
##########                          Grid_Score:          -33.159950
##########                     Grid_vdw_energy:          -32.706394
##########                      Grid_es_energy:           -0.453556
##########           Internal_energy_repulsive:           26.605879

@<TRIPOS>MOLECULE
ZINC000179496896
 53 55 1 0 0
SMALL
USER_CHARGES


@<TRIPOS>ATOM
      1 C1        -10.5690   -0.9102   52.0949 C.3     1  ZINC000179496896   -0.1500
      2 C2        -10.2856   -0.4736   53.5336 C.3     1  ZINC000179496896   -0.1100
      3 C3        -11.3980   -0.9862   54.4506 C.3     1  ZINC000179496896   -0.1400
      4 C4         -8.9438   -1.0518   53.9873 C.3     1  ZINC000179496896    0.1200
      5 N5         -7.8619   -0.4443   53.2083 N.pl3   1  ZINC000179496896   -0.3300
      6 N6         -7.2013   -1.0365   52.1261 N.2     1  ZINC000179496896   -0.2700
      7 C7         -6.2983   -0.2086   51.6779 C.2     1  ZINC000179496896    0.0800
      8 C8         -6.3477    0.9616   52.4680 C.2     1  ZINC000179496896   -0.2500
      9 C9         -5.5016    2.1589   52.3124 C.2     1  ZINC000179496896    0.5900
     10 O10        -5.7500    3.1658   52.9476 O.2     1  ZINC000179496896   -0.5300
     11 N11        -4.4527    2.1376   51.4662 N.am    1  ZINC000179496896   -0.7100
     12 C12        -3.6131    3.3280   51.3104 C.3     1  ZINC000179496896    0.1300
     13 C13        -3.3598    3.5821   49.8230 C.3     1  ZINC000179496896    0.0700
     14 H14        -4.3131    3.6852   49.3046 H       1  ZINC000179496896    0.0900
     15 C15        -2.5470    4.8676   49.6564 C.3     1  ZINC000179496896   -0.1900
     16 N16        -2.6125    2.4529   49.2536 N.3     1  ZINC000179496896   -0.5300
     17 C17        -1.1905    2.5247   49.6186 C.3     1  ZINC000179496896    0.0600
     18 C18        -0.5373    1.1611   49.3621 C.3     1  ZINC000179496896   -0.0400
     19 C19        -0.9240    0.7097   47.9695 C.2     1  ZINC000179496896   -0.1700
     20 C20        -1.9299    1.2515   47.2544 C.2     1  ZINC000179496896   -0.1100
     21 C21        -2.0967    0.6746   46.0006 C.2     1  ZINC000179496896   -0.1200
     22 C22        -1.2526   -0.3092   45.7025 C.2     1  ZINC000179496896   -0.2200
     23 S23        -0.1529   -0.5713   47.0487 S.3     1  ZINC000179496896    0.1000
     24 C24        -2.7867    2.3876   47.7963 C.3     1  ZINC000179496896    0.1200
     25 C25        -7.3410    0.7768   53.4087 C.2     1  ZINC000179496896    0.0700
     26 C26        -7.7570    1.7606   54.4716 C.3     1  ZINC000179496896    0.3400
     27 F27        -8.8867    2.4639   54.0399 F       1  ZINC000179496896   -0.1500
     28 F28        -8.0590    1.0723   55.6516 F       1  ZINC000179496896   -0.2000
     29 H29       -11.5250   -0.4983   51.7717 H       1  ZINC000179496896    0.0600
     30 H30        -9.7765   -0.5450   51.4417 H       1  ZINC000179496896    0.0600
     31 H31       -10.6072   -1.9984   52.0463 H       1  ZINC000179496896    0.0600
     32 H32       -10.2474    0.6147   53.5822 H       1  ZINC000179496896    0.0800
     33 H33       -11.4362   -2.0744   54.4020 H       1  ZINC000179496896    0.0600
     34 H34       -11.1962   -0.6751   55.4756 H       1  ZINC000179496896    0.0600
     35 H35       -12.3540   -0.5742   54.1275 H       1  ZINC000179496896    0.0700
     36 H36        -8.7945   -0.8368   55.0454 H       1  ZINC000179496896    0.1000
     37 H37        -8.9419   -2.1306   53.8319 H       1  ZINC000179496896    0.1000
     38 H38        -5.6298   -0.3867   50.8486 H       1  ZINC000179496896    0.2000
     39 H39        -4.2539    1.3342   50.9605 H       1  ZINC000179496896    0.4100
     40 H40        -4.1199    4.1895   51.7450 H       1  ZINC000179496896    0.0700
     41 H41        -2.6620    3.1710   51.8192 H       1  ZINC000179496896    0.0700
     42 H42        -2.3665    5.0486   48.5968 H       1  ZINC000179496896    0.0600
     43 H43        -3.1015    5.7055   50.0790 H       1  ZINC000179496896    0.0700
     44 H44        -1.5937    4.7644   50.1748 H       1  ZINC000179496896    0.0600
     45 H45        -0.6967    3.2849   49.0133 H       1  ZINC000179496896    0.0400
     46 H46        -1.0976    2.7805   50.6740 H       1  ZINC000179496896    0.0900
     47 H47         0.5465    1.2531   49.4317 H       1  ZINC000179496896    0.0800
     48 H48        -0.8940    0.4383   50.0958 H       1  ZINC000179496896    0.0900
     49 H49        -2.8620    1.0037   45.3134 H       1  ZINC000179496896    0.1400
     50 H50        -1.2440   -0.8624   44.7749 H       1  ZINC000179496896    0.1600
     51 H51        -3.8344    2.2000   47.5612 H       1  ZINC000179496896    0.0900
     52 H52        -2.4715    3.3296   47.3477 H       1  ZINC000179496896    0.0500
     53 H53        -6.9425    2.4606   54.6578 H       1  ZINC000179496896    0.1300
@<TRIPOS>BOND
     1     1     2    1
     2     1    29    1
     3     1    30    1
     4     1    31    1
     5     2     3    1
     6     2     4    1
     7     2    32    1
     8     3    33    1
     9     3    34    1
    10     3    35    1
    11     4     5    1
    12     4    36    1
    13     4    37    1
    14     5    25    1
    15     5     6    1
    16     6     7    2
    17     7     8    1
    18     7    38    1
    19     8     9    1
    20     8    25    2
    21     9    10    2
    22     9    11   am
    23    11    12    1
    24    11    39    1
    25    12    13    1
    26    12    40    1
    27    12    41    1
    28    13    14    1
    29    13    15    1
    30    13    16    1
    31    15    42    1
    32    15    43    1
    33    15    44    1
    34    16    24    1
    35    16    17    1
    36    17    18    1
    37    17    45    1
    38    17    46    1
    39    18    19    1
    40    18    47    1
    41    18    48    1
    42    19    23    1
    43    19    20    2
    44    20    21    1
    45    20    24    1
    46    21    22    2
    47    21    49    1
    48    22    23    1
    49    22    50    1
    50    24    51    1
    51    24    52    1
    52    25    26    1
    53    26    27    1
    54    26    28    1
    55    26    53    1
@<TRIPOS>SUBSTRUCTURE
     1 ZINC000179496896        1 TEMP              0 ****  ****    0 ROOT


##########                                Name:     oleObject52.pdb
##########                DOCK_Rotatable_Bonds:                  10
##########                         Heavy_Atoms:                  38
##########                    Molecular_Weight:              533.07
##########                DOCK_Rotatable_Bonds:                  10
##########                       Formal_Charge:         0.000300027
##########                     HBond_Acceptors:                   8
##########                        HBond_Donors:                   0
##########                         Heavy_Atoms:                  38
##########                          Grid_Score:          -33.158649
##########                     Grid_vdw_energy:          -33.088291
##########                      Grid_es_energy:           -0.070360
##########           Internal_energy_repulsive:           59.310604

@<TRIPOS>MOLECULE
oleObject52.pdb
 71 74 1 0 0
SMALL
NO_CHARGES


@<TRIPOS>ATOM
      1 C         -15.4913   -0.5874   51.5843 C.ar    1  UNL        -0.0596
      2 C         -15.3543   -0.3349   52.9575 C.ar    1  UNL        -0.0314
      3 C         -14.2479    0.3952   53.4419 C.ar    1  UNL         0.0800
      4 C         -13.2730    0.8784   52.5384 C.ar    1  UNL         0.0089
      5 C         -13.4218    0.6111   51.1604 C.ar    1  UNL        -0.0541
      6 C         -14.5243   -0.1156   50.6864 C.ar    1  UNL        -0.0617
      7 C         -12.0688    1.6681   53.0738 C.3     1  UNL         0.0953
      8 C         -12.4745    2.7191   54.1221 C.ar    1  UNL         0.0684
      9 C         -13.0785    3.9480   53.7554 C.ar    1  UNL        -0.0272
     10 C         -13.4314    4.8518   54.7751 C.ar    1  UNL        -0.0559
     11 C         -13.1774    4.5090   56.1108 C.ar    1  UNL        -0.0435
     12 C         -12.5797    3.2699   56.3845 C.ar    1  UNL         0.0272
     13 N         -12.2385    2.3989   55.4167 N.ar    1  UNL        -0.2587
     14 C         -13.3699    4.3108   52.3043 C.3     1  UNL        -0.0379
     15 N         -10.9077    0.8207   53.4692 N.am    1  UNL        -0.2917
     16 C          -9.9786    0.4055   52.5092 C.2     1  UNL         0.2180
     17 O          -9.9524    0.9317   51.4090 O.2     1  UNL        -0.2772
     18 C          -8.7977   -0.4735   52.9946 C.3     1  UNL         0.0385
     19 C          -7.7214    0.3565   53.7353 C.3     1  UNL        -0.0289
     20 C          -6.8798    1.2138   52.7655 C.3     1  UNL        -0.0010
     21 N          -6.2378    0.3818   51.7214 N.4     1  UNL        -0.3010
     22 C          -7.2102   -0.4210   50.9476 C.3     1  UNL        -0.0010
     23 C          -8.1284   -1.2809   51.8507 C.3     1  UNL        -0.0289
     24 C          -5.3220    1.1256   50.8280 C.3     1  UNL         0.0222
     25 C          -4.4656    2.1772   51.5632 C.3     1  UNL         0.0661
     26 O          -3.5167    2.7072   50.6205 O.3     1  UNL        -0.3432
     27 C          -2.5860    1.9331   49.9549 C.ar    1  UNL         0.0937
     28 C          -2.8408    1.3883   48.6788 C.ar    1  UNL        -0.0289
     29 C          -1.8666    0.6063   48.0362 C.ar    1  UNL        -0.0417
     30 C          -0.6311    0.3610   48.6599 C.ar    1  UNL         0.0537
     31 C          -0.3731    0.9021   49.9308 C.ar    1  UNL        -0.0230
     32 C          -1.3454    1.6846   50.5757 C.ar    1  UNL         0.0721
     33 CL         -0.9860    2.3419   52.1613 Cl      1  UNL        -0.0814
     34 C           0.3622   -0.4380   48.0018 C.1     1  UNL         0.0992
     35 N           1.1558   -1.0846   47.4637 N.1     1  UNL        -0.1924
     36 C         -10.8197    0.4224   54.8911 C.3     1  UNL         0.0037
     37 O         -14.0859    0.6497   54.7931 O.3     1  UNL        -0.3490
     38 C         -15.0046    0.2052   55.8055 C.3     1  UNL         0.0422
     39 H         -16.3450   -1.1502   51.2177 H       1  UNL         0.0624
     40 H         -16.1134   -0.7125   53.6341 H       1  UNL         0.0651
     41 H         -12.6849    0.9629   50.4466 H       1  UNL         0.0627
     42 H         -14.6278   -0.3128   49.6233 H       1  UNL         0.0623
     43 H         -11.7163    2.2409   52.2089 H       1  UNL         0.0627
     44 H         -13.9000    5.8026   54.5375 H       1  UNL         0.0627
     45 H         -13.4419    5.1862   56.9174 H       1  UNL         0.0639
     46 H         -12.3698    2.9635   57.4085 H       1  UNL         0.0840
     47 H         -12.4788    4.1903   51.6794 H       1  UNL         0.0280
     48 H         -13.7004    5.3522   52.2050 H       1  UNL         0.0280
     49 H         -14.1615    3.6720   51.8929 H       1  UNL         0.0280
     50 H          -9.1978   -1.2139   53.6952 H       1  UNL         0.0402
     51 H          -7.0498   -0.3272   54.2706 H       1  UNL         0.0288
     52 H          -8.1813    0.9969   54.4968 H       1  UNL         0.0288
     53 H          -6.1239    1.7439   53.3563 H       1  UNL         0.0431
     54 H          -7.5251    1.9666   52.2934 H       1  UNL         0.0431
     55 H          -6.6754   -1.0898   50.2610 H       1  UNL         0.0431
     56 H          -7.8267    0.2466   50.3326 H       1  UNL         0.0431
     57 H          -7.5199   -2.0788   52.2958 H       1  UNL         0.0288
     58 H          -8.8936   -1.7774   51.2404 H       1  UNL         0.0288
     59 H          -5.8957    1.6218   50.0342 H       1  UNL         0.0455
     60 H          -4.6364    0.4171   50.3450 H       1  UNL         0.0455
     61 H          -3.9426    1.6997   52.4017 H       1  UNL         0.0586
     62 H          -5.1020    2.9837   51.9467 H       1  UNL         0.0586
     63 H          -3.7863    1.5634   48.1757 H       1  UNL         0.0651
     64 H          -2.0736    0.1917   47.0529 H       1  UNL         0.0638
     65 H           0.5799    0.7170   50.4196 H       1  UNL         0.0653
     66 H         -11.8156    0.3880   55.3472 H       1  UNL         0.0433
     67 H         -10.1996    1.1392   55.4432 H       1  UNL         0.0433
     68 H         -10.3887   -0.5814   54.9816 H       1  UNL         0.0433
     69 H         -14.6506    0.5245   56.7933 H       1  UNL         0.0535
     70 H         -15.0801   -0.8896   55.8006 H       1  UNL         0.0535
     71 H         -15.9995    0.6363   55.6372 H       1  UNL         0.0535
@<TRIPOS>BOND
     1     1     2   ar
     2     1     6   ar
     3     1    39    1
     4     2     3   ar
     5     2    40    1
     6     3     4   ar
     7     3    37    1
     8     4     5   ar
     9     4     7    1
    10     5     6   ar
    11     5    41    1
    12     6    42    1
    13     7     8    1
    14     7    15    1
    15     7    43    1
    16     8     9   ar
    17     8    13   ar
    18     9    10   ar
    19     9    14    1
    20    10    11   ar
    21    10    44    1
    22    11    12   ar
    23    11    45    1
    24    12    13   ar
    25    12    46    1
    26    14    47    1
    27    14    48    1
    28    14    49    1
    29    15    16   am
    30    15    36    1
    31    16    17    2
    32    16    18    1
    33    18    19    1
    34    18    23    1
    35    18    50    1
    36    19    20    1
    37    19    51    1
    38    19    52    1
    39    20    21    1
    40    20    53    1
    41    20    54    1
    42    21    22    1
    43    21    24    1
    44    22    23    1
    45    22    55    1
    46    22    56    1
    47    23    57    1
    48    23    58    1
    49    24    25    1
    50    24    59    1
    51    24    60    1
    52    25    26    1
    53    25    61    1
    54    25    62    1
    55    26    27    1
    56    27    28   ar
    57    27    32   ar
    58    28    29   ar
    59    28    63    1
    60    29    30   ar
    61    29    64    1
    62    30    31   ar
    63    30    34    1
    64    31    32   ar
    65    31    65    1
    66    32    33    1
    67    34    35    3
    68    36    66    1
    69    36    67    1
    70    36    68    1
    71    37    38    1
    72    38    69    1
    73    38    70    1
    74    38    71    1
@<TRIPOS>SUBSTRUCTURE
     1 UNL         1 TEMP              0 ****  ****    0 ROOT


##########                                Name:    ZINC000821214121
##########                DOCK_Rotatable_Bonds:                  10
##########                         Heavy_Atoms:                  23
##########                    Molecular_Weight:             338.434
##########                DOCK_Rotatable_Bonds:                  10
##########                       Formal_Charge:          0.00999954
##########                     HBond_Acceptors:                   9
##########                        HBond_Donors:                   3
##########                         Heavy_Atoms:                  23
##########                          Grid_Score:          -33.141560
##########                     Grid_vdw_energy:          -30.018120
##########                      Grid_es_energy:           -3.123441
##########           Internal_energy_repulsive:           14.387648

@<TRIPOS>MOLECULE
ZINC000821214121
 45 46 1 0 0
SMALL
USER_CHARGES


@<TRIPOS>ATOM
      1 C1        -11.8653   -0.3802   51.8799 C.3     1  ZINC000821214121   -0.1500
      2 C2        -10.6919    0.2133   52.6621 C.3     1  ZINC000821214121    0.0500
      3 N3         -9.9632   -0.8645   53.3444 N.3     1  ZINC000821214121   -0.5200
      4 C4         -8.9192   -1.4256   52.4764 C.3     1  ZINC000821214121    0.0600
      5 C5         -7.8343   -0.3733   52.2381 C.3     1  ZINC000821214121   -0.1200
      6 C6         -6.5549   -1.0601   51.7560 C.3     1  ZINC000821214121    0.0800
      7 O7         -5.5349   -0.0797   51.5547 O.3     1  ZINC000821214121   -0.5700
      8 C8         -9.3949   -0.3938   54.6145 C.3     1  ZINC000821214121    0.0400
      9 C9        -10.4003   -0.5930   55.7193 C.2     1  ZINC000821214121    0.5000
     10 O10       -11.2180    0.2707   55.9581 O.2     1  ZINC000821214121   -0.4800
     11 N11       -10.3911   -1.7305   56.4418 N.am    1  ZINC000821214121   -0.6300
     12 C12       -11.3220   -1.9154   57.4625 C.2     1  ZINC000821214121    0.0800
     13 C13       -11.0443   -1.8876   58.7968 C.2     1  ZINC000821214121   -0.1000
     14 C14        -9.6826   -1.6509   59.3329 C.2     1  ZINC000821214121    0.2900
     15 N15        -8.8884   -2.5546   59.8778 N.2     1  ZINC000821214121   -0.3300
     16 N16        -7.7141   -1.8708   60.2332 N.pl3   1  ZINC000821214121   -0.2900
     17 N17        -7.8731   -0.6384   59.8897 N.2     1  ZINC000821214121    0.0200
     18 N18        -9.0292   -0.4840   59.3488 N.2     1  ZINC000821214121   -0.2900
     19 C19       -12.1550   -2.1016   59.6129 C.2     1  ZINC000821214121   -0.0500
     20 C20       -12.0640   -2.1098   61.1171 C.3     1  ZINC000821214121   -0.1000
     21 C21       -13.2993   -2.2973   58.9664 C.2     1  ZINC000821214121   -0.2400
     22 C22       -14.6302   -2.5483   59.6272 C.3     1  ZINC000821214121   -0.0800
     23 S23       -13.0394   -2.2136   57.2301 S.3     1  ZINC000821214121    0.2600
     24 H24       -11.4990   -1.1580   51.2098 H       1  ZINC000821214121    0.0700
     25 H25       -12.5858   -0.8099   52.5759 H       1  ZINC000821214121    0.0500
     26 H26       -12.3471    0.4046   51.2966 H       1  ZINC000821214121    0.0600
     27 H27       -10.0202    0.7277   51.9749 H       1  ZINC000821214121    0.0900
     28 H28       -11.0684    0.9213   53.4004 H       1  ZINC000821214121    0.0400
     29 H29        -8.4786   -2.2995   52.9563 H       1  ZINC000821214121    0.0400
     30 H30        -9.3580   -1.7174   51.5223 H       1  ZINC000821214121    0.0800
     31 H31        -8.1741    0.3341   51.4817 H       1  ZINC000821214121    0.0800
     32 H32        -7.6330    0.1581   53.1682 H       1  ZINC000821214121    0.0700
     33 H33        -6.2245   -1.7797   52.5050 H       1  ZINC000821214121    0.0400
     34 H34        -6.7520   -1.5775   50.8171 H       1  ZINC000821214121    0.0500
     35 H35        -5.3257    0.4382   52.3441 H       1  ZINC000821214121    0.3800
     36 H36        -8.4907   -0.9593   54.8398 H       1  ZINC000821214121    0.0700
     37 H37        -9.1500    0.6652   54.5327 H       1  ZINC000821214121    0.1200
     38 H38        -9.7365   -2.4207   56.2517 H       1  ZINC000821214121    0.4200
     39 H39        -6.9307   -2.2539   60.6578 H       1  ZINC000821214121    0.4700
     40 H40       -12.2248   -1.1006   61.4963 H       1  ZINC000821214121    0.0700
     41 H41       -12.8249   -2.7761   61.5235 H       1  ZINC000821214121    0.0700
     42 H42       -11.0766   -2.4586   61.4195 H       1  ZINC000821214121    0.0900
     43 H43       -15.1335   -1.5978   59.8034 H       1  ZINC000821214121    0.0700
     44 H44       -15.2463   -3.1709   58.9784 H       1  ZINC000821214121    0.0700
     45 H45       -14.4734   -3.0581   60.5778 H       1  ZINC000821214121    0.0800
@<TRIPOS>BOND
     1     1     2    1
     2     1    24    1
     3     1    25    1
     4     1    26    1
     5     2     3    1
     6     2    27    1
     7     2    28    1
     8     3     4    1
     9     3     8    1
    10     4     5    1
    11     4    29    1
    12     4    30    1
    13     5     6    1
    14     5    31    1
    15     5    32    1
    16     6     7    1
    17     6    33    1
    18     6    34    1
    19     7    35    1
    20     8     9    1
    21     8    36    1
    22     8    37    1
    23     9    10    2
    24     9    11   am
    25    11    12    1
    26    11    38    1
    27    12    23    1
    28    12    13    2
    29    13    14    1
    30    13    19    1
    31    14    18    1
    32    14    15    2
    33    15    16    1
    34    16    17    1
    35    16    39    1
    36    17    18    2
    37    19    20    1
    38    19    21    2
    39    20    40    1
    40    20    41    1
    41    20    42    1
    42    21    22    1
    43    21    23    1
    44    22    43    1
    45    22    44    1
    46    22    45    1
@<TRIPOS>SUBSTRUCTURE
     1 ZINC000821214121        1 TEMP              0 ****  ****    0 ROOT


##########                                Name:    ZINC001105194920
##########                DOCK_Rotatable_Bonds:                   8
##########                         Heavy_Atoms:                  25
##########                    Molecular_Weight:             346.392
##########                DOCK_Rotatable_Bonds:                   8
##########                       Formal_Charge:          -0.0100007
##########                     HBond_Acceptors:                  10
##########                        HBond_Donors:                   3
##########                         Heavy_Atoms:                  25
##########                          Grid_Score:          -33.123917
##########                     Grid_vdw_energy:          -33.583481
##########                      Grid_es_energy:            0.459565
##########           Internal_energy_repulsive:           12.567496

@<TRIPOS>MOLECULE
ZINC001105194920
 47 49 1 0 0
SMALL
USER_CHARGES


@<TRIPOS>ATOM
      1 C1         -8.0994   -1.2520   50.8416 C.3     1  ZINC001105194920    0.0300
      2 O2         -7.9118   -1.7653   52.1620 O.3     1  ZINC001105194920   -0.3900
      3 C3         -8.6733   -1.0871   53.1630 C.3     1  ZINC001105194920    0.0700
      4 C4         -8.3309    0.4039   53.1411 C.3     1  ZINC001105194920    0.0900
      5 H5         -8.6829    0.8439   52.2080 H       1  ZINC001105194920    0.0900
      6 C6         -9.0103    1.1007   54.3218 C.3     1  ZINC001105194920   -0.1800
      7 N7         -6.8753    0.5738   53.2440 N.3     1  ZINC001105194920   -0.6800
      8 C8         -6.4861    1.9622   52.9635 C.3     1  ZINC001105194920    0.1400
      9 C9         -5.3261    1.9741   52.0015 C.2     1  ZINC001105194920   -0.0200
     10 C10        -4.3913    2.9444   51.8722 C.2     1  ZINC001105194920   -0.0200
     11 N11        -3.5527    2.5318   50.8936 N.pl3   1  ZINC001105194920   -0.2800
     12 C12        -2.3802    3.2609   50.4040 C.3     1  ZINC001105194920    0.1000
     13 C13        -1.2205    2.3479   49.9669 C.3     1  ZINC001105194920    0.1100
     14 N14        -1.8316    2.3830   48.6241 N.am    1  ZINC001105194920   -0.6300
     15 C15        -1.8071    1.5647   47.5534 C.2     1  ZINC001105194920    0.6200
     16 O16        -2.4274    1.8581   46.5498 O.2     1  ZINC001105194920   -0.5400
     17 C17        -1.0266    0.3112   47.5993 C.ar    1  ZINC001105194920   -0.0600
     18 N18        -1.6463   -0.8642   47.5470 N.ar    1  ZINC001105194920   -0.3700
     19 C19        -0.9471   -1.9802   47.5884 C.ar    1  ZINC001105194920   -0.0200
     20 C20         0.4363   -1.9375   47.6865 C.ar    1  ZINC001105194920    0.1500
     21 N21         1.0655   -0.7777   47.7398 N.ar    1  ZINC001105194920   -0.5100
     22 C22         0.3743    0.3552   47.6929 C.ar    1  ZINC001105194920    0.4200
     23 N23         1.0293    1.5717   47.7480 N.pl3   1  ZINC001105194920   -0.8100
     24 C24        -2.4805    3.6740   48.9244 C.3     1  ZINC001105194920    0.1100
     25 N25        -3.9621    1.3884   50.4672 N.2     1  ZINC001105194920   -0.0800
     26 N26        -5.0146    1.0253   51.1115 N.2     1  ZINC001105194920   -0.2600
     27 H27        -7.8045   -0.2030   50.8143 H       1  ZINC001105194920    0.0400
     28 H28        -7.4876   -1.8198   50.1406 H       1  ZINC001105194920    0.0800
     29 H29        -9.1493   -1.3416   50.5628 H       1  ZINC001105194920    0.0400
     30 H30        -9.7365   -1.2187   52.9620 H       1  ZINC001105194920    0.0600
     31 H31        -8.4349   -1.5003   54.1430 H       1  ZINC001105194920    0.0500
     32 H32        -8.6582    0.6606   55.2548 H       1  ZINC001105194920    0.0700
     33 H33        -8.7664    2.1629   54.3062 H       1  ZINC001105194920    0.0500
     34 H34       -10.0903    0.9747   54.2454 H       1  ZINC001105194920    0.0600
     35 H35        -6.5401    0.2800   54.1493 H       1  ZINC001105194920    0.3500
     36 H36        -7.3293    2.4939   52.5226 H       1  ZINC001105194920    0.0900
     37 H37        -6.1930    2.4520   53.8921 H       1  ZINC001105194920    0.0500
     38 H38        -4.3277    3.8632   52.4362 H       1  ZINC001105194920    0.1800
     39 H39        -2.0770    4.0718   51.0664 H       1  ZINC001105194920    0.1500
     40 H40        -0.2421    2.8259   50.0169 H       1  ZINC001105194920    0.1200
     41 H41        -1.2380    1.3622   50.4319 H       1  ZINC001105194920    0.1000
     42 H42        -1.4535   -2.9331   47.5460 H       1  ZINC001105194920    0.1800
     43 H43         1.0012   -2.8574   47.7197 H       1  ZINC001105194920    0.1800
     44 H44         1.9987    1.6012   47.7430 H       1  ZINC001105194920    0.4000
     45 H45         0.5192    2.3957   47.7915 H       1  ZINC001105194920    0.4300
     46 H46        -3.5043    3.7471   48.5572 H       1  ZINC001105194920    0.1100
     47 H47        -1.8724    4.5415   48.6682 H       1  ZINC001105194920    0.1200
@<TRIPOS>BOND
     1     1     2    1
     2     1    27    1
     3     1    28    1
     4     1    29    1
     5     2     3    1
     6     3     4    1
     7     3    30    1
     8     3    31    1
     9     4     5    1
    10     4     6    1
    11     4     7    1
    12     6    32    1
    13     6    33    1
    14     6    34    1
    15     7     8    1
    16     7    35    1
    17     8     9    1
    18     8    36    1
    19     8    37    1
    20     9    26    1
    21     9    10    2
    22    10    11    1
    23    10    38    1
    24    11    12    1
    25    11    25    1
    26    12    24    1
    27    12    13    1
    28    12    39    1
    29    13    14    1
    30    13    40    1
    31    13    41    1
    32    14    15   am
    33    14    24    1
    34    15    16    2
    35    15    17    1
    36    17    22   ar
    37    17    18   ar
    38    18    19   ar
    39    19    20   ar
    40    19    42    1
    41    20    21   ar
    42    20    43    1
    43    21    22   ar
    44    22    23    1
    45    23    44    1
    46    23    45    1
    47    24    46    1
    48    24    47    1
    49    25    26    2
@<TRIPOS>SUBSTRUCTURE
     1 ZINC001105194920        1 TEMP              0 ****  ****    0 ROOT


##########                                Name:    ZINC000912668252
##########                DOCK_Rotatable_Bonds:                  10
##########                         Heavy_Atoms:                  30
##########                    Molecular_Weight:             411.433
##########                DOCK_Rotatable_Bonds:                  10
##########                       Formal_Charge:           0.0199993
##########                     HBond_Acceptors:                   8
##########                        HBond_Donors:                   2
##########                         Heavy_Atoms:                  30
##########                          Grid_Score:          -33.106220
##########                     Grid_vdw_energy:          -32.919365
##########                      Grid_es_energy:           -0.186855
##########           Internal_energy_repulsive:           15.965525

@<TRIPOS>MOLECULE
ZINC000912668252
 52 54 1 0 0
SMALL
USER_CHARGES


@<TRIPOS>ATOM
      1 C1        -13.5511    0.8017   50.3589 C.3     1  ZINC000912668252   -0.1700
      2 C2        -12.8746   -0.4108   51.0014 C.3     1  ZINC000912668252    0.1100
      3 N3        -11.7509    0.0377   51.8275 N.am    1  ZINC000912668252   -0.6100
      4 C4        -11.9055    1.1997   52.7061 C.3     1  ZINC000912668252    0.1000
      5 C5        -11.1751    2.3991   52.0986 C.3     1  ZINC000912668252   -0.1800
      6 C6        -10.5748   -0.6188   51.7791 C.2     1  ZINC000912668252    0.5600
      7 O7        -10.4465   -1.5830   51.0502 O.2     1  ZINC000912668252   -0.5300
      8 C8         -9.4407   -0.1662   52.6129 C.ar    1  ZINC000912668252   -0.1100
      9 C9         -9.4327   -0.4251   53.9844 C.ar    1  ZINC000912668252   -0.1100
     10 C10        -8.3726   -0.0019   54.7604 C.ar    1  ZINC000912668252   -0.1000
     11 C11        -7.3166    0.6786   54.1840 C.ar    1  ZINC000912668252   -0.1200
     12 C12        -7.3151    0.9413   52.8191 C.ar    1  ZINC000912668252    0.1400
     13 N13        -6.2432    1.6304   52.2403 N.am    1  ZINC000912668252   -0.6700
     14 C14        -5.3133    0.9584   51.5330 C.2     1  ZINC000912668252    0.5200
     15 O15        -5.4054   -0.2434   51.3980 O.2     1  ZINC000912668252   -0.4900
     16 C16        -4.1591    1.7004   50.9098 C.3     1  ZINC000912668252    0.0500
     17 O17        -4.4882    2.0429   49.5376 O.3     1  ZINC000912668252   -0.3300
     18 C18        -3.6723    2.9152   48.9119 C.2     1  ZINC000912668252    0.5400
     19 O19        -3.5946    4.0635   49.3039 O.2     1  ZINC000912668252   -0.4800
     20 C20        -2.8773    2.4782   47.7566 C.2     1  ZINC000912668252    0.0400
     21 C21        -1.5964    2.8513   47.4946 C.2     1  ZINC000912668252   -0.0900
     22 C22        -1.1983    2.2138   46.2952 C.ar    1  ZINC000912668252   -0.1000
     23 C23        -0.0117    2.2213   45.5502 C.ar    1  ZINC000912668252   -0.0900
     24 C24         0.0743    1.4850   44.4023 C.ar    1  ZINC000912668252    0.0700
     25 F25         1.2194    1.4938   43.6854 F       1  ZINC000912668252   -0.1400
     26 C26        -1.0066    0.7264   43.9659 C.ar    1  ZINC000912668252   -0.1100
     27 C27        -2.1828    0.7042   44.6817 C.ar    1  ZINC000912668252   -0.1000
     28 C28        -2.2942    1.4462   45.8541 C.ar    1  ZINC000912668252    0.1100
     29 N29        -3.3098    1.6177   46.7658 N.pl3   1  ZINC000912668252   -0.5600
     30 C30        -8.3724    0.5160   52.0304 C.ar    1  ZINC000912668252   -0.0700
     31 H31       -14.3872    0.4680   49.7443 H       1  ZINC000912668252    0.0700
     32 H32       -13.9173    1.4692   51.1390 H       1  ZINC000912668252    0.0600
     33 H33       -12.8309    1.3318   49.7357 H       1  ZINC000912668252    0.0600
     34 H34       -13.5949   -0.9409   51.6246 H       1  ZINC000912668252    0.0800
     35 H35       -12.5085   -1.0783   50.2214 H       1  ZINC000912668252    0.0900
     36 H36       -12.9642    1.4355   52.8138 H       1  ZINC000912668252    0.0900
     37 H37       -11.4821    0.9741   53.6848 H       1  ZINC000912668252    0.0800
     38 H38       -10.1131    2.3358   52.3358 H       1  ZINC000912668252    0.0600
     39 H39       -11.3067    2.3947   51.0167 H       1  ZINC000912668252    0.0700
     40 H40       -11.5852    3.3211   52.5108 H       1  ZINC000912668252    0.0700
     41 H41       -10.2561   -0.9562   54.4385 H       1  ZINC000912668252    0.1400
     42 H42        -8.3684   -0.2028   55.8214 H       1  ZINC000912668252    0.1400
     43 H43        -6.4900    1.0076   54.7963 H       1  ZINC000912668252    0.1300
     44 H44        -6.1695    2.5915   52.3483 H       1  ZINC000912668252    0.4200
     45 H45        -3.9653    2.6119   51.4753 H       1  ZINC000912668252    0.1100
     46 H46        -3.2711    1.0685   50.9236 H       1  ZINC000912668252    0.1100
     47 H47        -0.9914    3.5156   48.0939 H       1  ZINC000912668252    0.1700
     48 H48         0.8323    2.8077   45.8821 H       1  ZINC000912668252    0.1400
     49 H49        -0.9229    0.1496   43.0568 H       1  ZINC000912668252    0.1400
     50 H50        -3.0168    0.1126   44.3343 H       1  ZINC000912668252    0.1400
     51 H51        -4.1860    1.2040   46.7198 H       1  ZINC000912668252    0.4300
     52 H52        -8.3730    0.7191   50.9696 H       1  ZINC000912668252    0.1400
@<TRIPOS>BOND
     1     1     2    1
     2     1    31    1
     3     1    32    1
     4     1    33    1
     5     2     3    1
     6     2    34    1
     7     2    35    1
     8     3     4    1
     9     3     6   am
    10     4     5    1
    11     4    36    1
    12     4    37    1
    13     5    38    1
    14     5    39    1
    15     5    40    1
    16     6     7    2
    17     6     8    1
    18     8    30   ar
    19     8     9   ar
    20     9    10   ar
    21     9    41    1
    22    10    11   ar
    23    10    42    1
    24    11    12   ar
    25    11    43    1
    26    12    13    1
    27    12    30   ar
    28    13    14   am
    29    13    44    1
    30    14    15    2
    31    14    16    1
    32    16    17    1
    33    16    45    1
    34    16    46    1
    35    17    18    1
    36    18    19    2
    37    18    20    1
    38    20    29    1
    39    20    21    2
    40    21    22    1
    41    21    47    1
    42    22    28   ar
    43    22    23   ar
    44    23    24   ar
    45    23    48    1
    46    24    25    1
    47    24    26   ar
    48    26    27   ar
    49    26    49    1
    50    27    28   ar
    51    27    50    1
    52    28    29    1
    53    29    51    1
    54    30    52    1
@<TRIPOS>SUBSTRUCTURE
     1 ZINC000912668252        1 TEMP              0 ****  ****    0 ROOT


##########                                Name:    ZINC000859496582
##########                DOCK_Rotatable_Bonds:                  10
##########                         Heavy_Atoms:                  26
##########                    Molecular_Weight:             361.438
##########                DOCK_Rotatable_Bonds:                  10
##########                       Formal_Charge:           0.0100006
##########                     HBond_Acceptors:                   6
##########                        HBond_Donors:                   0
##########                         Heavy_Atoms:                  26
##########                          Grid_Score:          -33.092049
##########                     Grid_vdw_energy:          -31.258780
##########                      Grid_es_energy:           -1.833270
##########           Internal_energy_repulsive:           19.427322

@<TRIPOS>MOLECULE
ZINC000859496582
 53 54 1 0 0
SMALL
USER_CHARGES


@<TRIPOS>ATOM
      1 C1         -5.4688    1.0124   52.0252 C.3     1  ZINC000859496582    0.0300
      2 O2         -6.2167    0.7629   50.8059 O.3     1  ZINC000859496582   -0.3600
      3 C3         -7.2344   -0.1089   50.8829 C.2     1  ZINC000859496582    0.4600
      4 O4         -7.8054   -0.4612   49.8780 O.2     1  ZINC000859496582   -0.5100
      5 C5         -7.6650   -0.6481   52.2226 C.3     1  ZINC000859496582   -0.1100
      6 C6         -8.5786    0.3676   52.9115 C.3     1  ZINC000859496582   -0.1100
      7 C7         -9.1210   -0.2328   54.2101 C.3     1  ZINC000859496582   -0.1200
      8 C8        -10.2620   -1.1998   53.8873 C.3     1  ZINC000859496582    0.0700
      9 O9        -10.9409   -1.5743   55.1149 O.3     1  ZINC000859496582   -0.3500
     10 C10       -10.3494   -2.5063   55.8785 C.2     1  ZINC000859496582    0.4700
     11 O11        -9.9339   -3.5238   55.3766 O.2     1  ZINC000859496582   -0.5000
     12 C12       -10.2034   -2.2835   57.3618 C.3     1  ZINC000859496582   -0.1000
     13 H13        -9.4508   -2.9642   57.7597 H       1  ZINC000859496582    0.1200
     14 C14       -11.5442   -2.5449   58.0519 C.3     1  ZINC000859496582   -0.1100
     15 C15       -11.3890   -2.3510   59.5620 C.3     1  ZINC000859496582   -0.1300
     16 C16       -10.9725   -0.9045   59.8468 C.3     1  ZINC000859496582    0.1100
     17 N17        -9.7622   -0.5995   59.0717 N.am    1  ZINC000859496582   -0.6100
     18 C18        -8.6624   -0.1118   59.6793 C.2     1  ZINC000859496582    0.5700
     19 O19        -7.6673    0.1364   59.0270 O.2     1  ZINC000859496582   -0.5300
     20 C20        -8.6665    0.1212   61.1393 C.ar    1  ZINC000859496582   -0.1400
     21 C21        -8.0861   -0.8121   61.9997 C.ar    1  ZINC000859496582   -0.0900
     22 C22        -8.0929   -0.5884   63.3609 C.ar    1  ZINC000859496582   -0.1200
     23 C23        -8.6736    0.5579   63.8739 C.ar    1  ZINC000859496582   -0.0600
     24 C24        -8.6777    0.7955   65.3620 C.3     1  ZINC000859496582   -0.1200
     25 C25        -9.2501    1.4874   63.0264 C.ar    1  ZINC000859496582   -0.1200
     26 C26        -9.2455    1.2782   61.6628 C.ar    1  ZINC000859496582   -0.0600
     27 C27        -9.7728   -0.8366   57.6216 C.3     1  ZINC000859496582    0.1100
     28 H28        -5.0294    0.0799   52.3792 H       1  ZINC000859496582    0.0600
     29 H29        -4.6770    1.7341   51.8245 H       1  ZINC000859496582    0.1000
     30 H30        -6.1387    1.4107   52.7872 H       1  ZINC000859496582    0.0600
     31 H31        -8.2044   -1.5846   52.0809 H       1  ZINC000859496582    0.1100
     32 H32        -6.7861   -0.8253   52.8425 H       1  ZINC000859496582    0.1100
     33 H33        -8.0122    1.2710   53.1376 H       1  ZINC000859496582    0.0800
     34 H34        -9.4096    0.6155   52.2510 H       1  ZINC000859496582    0.0800
     35 H35        -8.3234   -0.7703   54.7229 H       1  ZINC000859496582    0.0800
     36 H36        -9.4923    0.5658   54.8523 H       1  ZINC000859496582    0.0800
     37 H37       -10.9693   -0.7154   53.2141 H       1  ZINC000859496582    0.0700
     38 H38        -9.8577   -2.0919   53.4090 H       1  ZINC000859496582    0.0700
     39 H39       -12.2907   -1.8479   57.6710 H       1  ZINC000859496582    0.0800
     40 H40       -11.8644   -3.5667   57.8481 H       1  ZINC000859496582    0.0800
     41 H41       -12.3383   -2.5601   60.0551 H       1  ZINC000859496582    0.0900
     42 H42       -10.6250   -3.0306   59.9395 H       1  ZINC000859496582    0.0700
     43 H43       -11.7752   -0.2284   59.5522 H       1  ZINC000859496582    0.0700
     44 H44       -10.7647   -0.7868   60.9103 H       1  ZINC000859496582    0.1000
     45 H45        -7.6332   -1.7077   61.6006 H       1  ZINC000859496582    0.1300
     46 H46        -7.6442   -1.3098   64.0278 H       1  ZINC000859496582    0.1300
     47 H47        -7.7785    1.3426   65.6451 H       1  ZINC000859496582    0.0800
     48 H48        -9.5580    1.3774   65.6346 H       1  ZINC000859496582    0.0700
     49 H49        -8.6995   -0.1619   65.8827 H       1  ZINC000859496582    0.0700
     50 H50        -9.7015    2.3802   63.4331 H       1  ZINC000859496582    0.1300
     51 H51        -9.6956    2.0047   61.0023 H       1  ZINC000859496582    0.1300
     52 H52        -8.7736   -0.6737   57.2175 H       1  ZINC000859496582    0.1100
     53 H53       -10.4776   -0.1552   57.1451 H       1  ZINC000859496582    0.0800
@<TRIPOS>BOND
     1     1     2    1
     2     1    28    1
     3     1    29    1
     4     1    30    1
     5     2     3    1
     6     3     4    2
     7     3     5    1
     8     5     6    1
     9     5    31    1
    10     5    32    1
    11     6     7    1
    12     6    33    1
    13     6    34    1
    14     7     8    1
    15     7    35    1
    16     7    36    1
    17     8     9    1
    18     8    37    1
    19     8    38    1
    20     9    10    1
    21    10    11    2
    22    10    12    1
    23    12    13    1
    24    12    27    1
    25    12    14    1
    26    14    15    1
    27    14    39    1
    28    14    40    1
    29    15    16    1
    30    15    41    1
    31    15    42    1
    32    16    17    1
    33    16    43    1
    34    16    44    1
    35    17    18   am
    36    17    27    1
    37    18    19    2
    38    18    20    1
    39    20    26   ar
    40    20    21   ar
    41    21    22   ar
    42    21    45    1
    43    22    23   ar
    44    22    46    1
    45    23    24    1
    46    23    25   ar
    47    24    47    1
    48    24    48    1
    49    24    49    1
    50    25    26   ar
    51    25    50    1
    52    26    51    1
    53    27    52    1
    54    27    53    1
@<TRIPOS>SUBSTRUCTURE
     1 ZINC000859496582        1 TEMP              0 ****  ****    0 ROOT


##########                                Name:    ZINC001289410668
##########                DOCK_Rotatable_Bonds:                  11
##########                         Heavy_Atoms:                  26
##########                    Molecular_Weight:             362.515
##########                DOCK_Rotatable_Bonds:                  11
##########                       Formal_Charge:          -0.0400008
##########                     HBond_Acceptors:                   6
##########                        HBond_Donors:                   1
##########                         Heavy_Atoms:                  26
##########                          Grid_Score:          -33.087997
##########                     Grid_vdw_energy:          -33.032825
##########                      Grid_es_energy:           -0.055172
##########           Internal_energy_repulsive:           14.055861

@<TRIPOS>MOLECULE
ZINC001289410668
 60 61 1 0 0
SMALL
USER_CHARGES


@<TRIPOS>ATOM
      1 C1         -4.9104    1.2104   50.8992 C.3     1  ZINC001289410668   -0.1500
      2 C2         -6.2720    0.5854   51.2098 C.3     1  ZINC001289410668   -0.1300
      3 C3         -6.0706   -0.8277   51.7608 C.3     1  ZINC001289410668   -0.1200
      4 C4         -7.4318   -1.5008   51.9482 C.3     1  ZINC001289410668   -0.1200
      5 C5         -8.2227   -0.7602   53.0283 C.3     1  ZINC001289410668   -0.1100
      6 C6         -9.4717   -1.5667   53.3893 C.3     1  ZINC001289410668   -0.1400
      7 C7         -9.9376   -1.1804   54.7694 C.2     1  ZINC001289410668    0.5100
      8 O8         -9.8156   -0.0362   55.1524 O.2     1  ZINC001289410668   -0.5300
      9 N9        -10.4897   -2.1065   55.5781 N.am    1  ZINC001289410668   -0.7200
     10 C10       -10.9443   -1.7306   56.9191 C.3     1  ZINC001289410668    0.1400
     11 H11       -11.3259   -0.7096   56.9280 H       1  ZINC001289410668    0.1100
     12 C12        -9.8108   -1.9089   57.9597 C.3     1  ZINC001289410668    0.0800
     13 N13       -10.5060   -2.1048   59.2450 N.am    1  ZINC001289410668   -0.6200
     14 C14        -9.9901   -1.8503   60.4639 C.2     1  ZINC001289410668    0.5100
     15 O15       -10.6566   -2.0479   61.4577 O.2     1  ZINC001289410668   -0.5100
     16 C16        -8.5853   -1.3200   60.5918 C.3     1  ZINC001289410668    0.0900
     17 N17        -8.6274    0.1301   60.7957 N.pl3   1  ZINC001289410668   -0.4500
     18 C18        -8.5460    1.0898   59.8230 C.2     1  ZINC001289410668   -0.0500
     19 C19        -8.6262    2.2820   60.4444 C.2     1  ZINC001289410668   -0.0200
     20 N20        -8.7531    2.0563   61.7604 N.2     1  ZINC001289410668   -0.4800
     21 C21        -8.7597    0.7696   61.9778 C.2     1  ZINC001289410668    0.2300
     22 C22        -8.8848    0.1071   63.3256 C.3     1  ZINC001289410668   -0.0100
     23 C23        -7.4897   -0.1489   63.8994 C.3     1  ZINC001289410668   -0.1400
     24 C24        -9.6659    1.0205   64.2723 C.3     1  ZINC001289410668   -0.1400
     25 C25       -11.8555   -2.6231   58.9769 C.3     1  ZINC001289410668    0.1100
     26 C26       -12.0107   -2.7276   57.4445 C.3     1  ZINC001289410668   -0.1100
     27 H27       -11.7931   -3.7396   57.1030 H       1  ZINC001289410668    0.0900
     28 C28       -13.4157   -2.3030   57.0126 C.3     1  ZINC001289410668   -0.1400
     29 H29        -5.0538    2.2171   50.5067 H       1  ZINC001289410668    0.0500
     30 H30        -4.3156    1.2573   51.8114 H       1  ZINC001289410668    0.0500
     31 H31        -4.3919    0.6019   50.1583 H       1  ZINC001289410668    0.0500
     32 H32        -6.7905    1.1938   51.9508 H       1  ZINC001289410668    0.0600
     33 H33        -6.8668    0.5384   50.2976 H       1  ZINC001289410668    0.0600
     34 H34        -5.4713   -1.4090   51.0600 H       1  ZINC001289410668    0.0600
     35 H35        -5.5568   -0.7738   52.7206 H       1  ZINC001289410668    0.0600
     36 H36        -7.9841   -1.4713   51.0089 H       1  ZINC001289410668    0.0600
     37 H37        -7.2858   -2.5376   52.2513 H       1  ZINC001289410668    0.0600
     38 H38        -7.6003   -0.6379   53.9147 H       1  ZINC001289410668    0.0700
     39 H39        -8.5186    0.2199   52.6542 H       1  ZINC001289410668    0.0700
     40 H40       -10.2609   -1.3568   52.6673 H       1  ZINC001289410668    0.1000
     41 H41        -9.2353   -2.6306   53.3701 H       1  ZINC001289410668    0.1000
     42 H42       -10.5862   -3.0219   55.2721 H       1  ZINC001289410668    0.4000
     43 H43        -9.2076   -2.7839   57.7176 H       1  ZINC001289410668    0.0800
     44 H44        -9.1871   -1.0159   57.9982 H       1  ZINC001289410668    0.0800
     45 H45        -8.0947   -1.7925   61.4428 H       1  ZINC001289410668    0.1200
     46 H46        -8.0286   -1.5429   59.6816 H       1  ZINC001289410668    0.1200
     47 H47        -8.4378    0.9230   58.7615 H       1  ZINC001289410668    0.1700
     48 H48        -8.5939    3.2501   59.9666 H       1  ZINC001289410668    0.1700
     49 H49        -9.4124   -0.8405   63.2171 H       1  ZINC001289410668    0.0700
     50 H50        -6.9620    0.7987   64.0078 H       1  ZINC001289410668    0.0700
     51 H51        -7.5801   -0.6280   64.8742 H       1  ZINC001289410668    0.0600
     52 H52        -6.9332   -0.7996   63.2249 H       1  ZINC001289410668    0.0500
     53 H53        -9.1382    1.9681   64.3807 H       1  ZINC001289410668    0.0700
     54 H54       -10.6598    1.2028   63.8635 H       1  ZINC001289410668    0.0600
     55 H55        -9.7564    0.5414   65.2472 H       1  ZINC001289410668    0.0600
     56 H56       -11.9712   -3.6078   59.4296 H       1  ZINC001289410668    0.0800
     57 H57       -12.6022   -1.9382   59.3786 H       1  ZINC001289410668    0.0800
     58 H58       -13.6019   -1.2793   57.3374 H       1  ZINC001289410668    0.0600
     59 H59       -13.4947   -2.3598   55.9269 H       1  ZINC001289410668    0.0600
     60 H60       -14.1515   -2.9675   57.4657 H       1  ZINC001289410668    0.0700
@<TRIPOS>BOND
     1     1     2    1
     2     1    29    1
     3     1    30    1
     4     1    31    1
     5     2     3    1
     6     2    32    1
     7     2    33    1
     8     3     4    1
     9     3    34    1
    10     3    35    1
    11     4     5    1
    12     4    36    1
    13     4    37    1
    14     5     6    1
    15     5    38    1
    16     5    39    1
    17     6     7    1
    18     6    40    1
    19     6    41    1
    20     7     8    2
    21     7     9   am
    22     9    10    1
    23     9    42    1
    24    10    11    1
    25    10    26    1
    26    10    12    1
    27    12    13    1
    28    12    43    1
    29    12    44    1
    30    13    14   am
    31    13    25    1
    32    14    15    2
    33    14    16    1
    34    16    17    1
    35    16    45    1
    36    16    46    1
    37    17    21    1
    38    17    18    1
    39    18    19    2
    40    18    47    1
    41    19    20    1
    42    19    48    1
    43    20    21    2
    44    21    22    1
    45    22    23    1
    46    22    24    1
    47    22    49    1
    48    23    50    1
    49    23    51    1
    50    23    52    1
    51    24    53    1
    52    24    54    1
    53    24    55    1
    54    25    26    1
    55    25    56    1
    56    25    57    1
    57    26    27    1
    58    26    28    1
    59    28    58    1
    60    28    59    1
    61    28    60    1
@<TRIPOS>SUBSTRUCTURE
     1 ZINC001289410668        1 TEMP              0 ****  ****    0 ROOT


##########                                Name:    ZINC000790205345
##########                DOCK_Rotatable_Bonds:                   7
##########                         Heavy_Atoms:                  28
##########                    Molecular_Weight:             382.459
##########                DOCK_Rotatable_Bonds:                   7
##########                       Formal_Charge:          -0.0299997
##########                     HBond_Acceptors:                   6
##########                        HBond_Donors:                   0
##########                         Heavy_Atoms:                  28
##########                          Grid_Score:          -33.052204
##########                     Grid_vdw_energy:          -33.551174
##########                      Grid_es_energy:            0.498970
##########           Internal_energy_repulsive:           45.677856

@<TRIPOS>MOLECULE
ZINC000790205345
 54 56 1 0 0
SMALL
USER_CHARGES


@<TRIPOS>ATOM
      1 C1        -10.3314   -1.0349   54.6413 C.3     1  ZINC000790205345   -0.1100
      2 C2         -9.0544   -0.5905   53.9756 C.ar    1  ZINC000790205345   -0.1300
      3 C3         -8.7652   -1.0079   52.6899 C.ar    1  ZINC000790205345   -0.0800
      4 C4         -7.5954   -0.6015   52.0771 C.ar    1  ZINC000790205345   -0.2100
      5 C5         -6.7110    0.2260   52.7532 C.ar    1  ZINC000790205345    0.1300
      6 O6         -5.5599    0.6276   52.1526 O.3     1  ZINC000790205345   -0.2900
      7 C7         -5.2109    2.0079   52.2766 C.3     1  ZINC000790205345    0.0400
      8 C8         -4.2861    2.3951   51.1515 C.2     1  ZINC000790205345    0.5200
      9 O9         -4.3371    1.8040   50.0937 O.2     1  ZINC000790205345   -0.5100
     10 N10        -3.4022    3.3984   51.3207 N.am    1  ZINC000790205345   -0.6100
     11 C11        -3.3392    4.1112   52.5991 C.3     1  ZINC000790205345    0.0700
     12 C12        -2.5043    3.7760   50.2265 C.3     1  ZINC000790205345    0.1800
     13 H13        -1.7120    4.4179   50.6118 H       1  ZINC000790205345    0.1200
     14 C14        -3.2950    4.5291   49.1548 C.3     1  ZINC000790205345   -0.1600
     15 C15        -1.8972    2.5353   49.6239 C.ar    1  ZINC000790205345   -0.0700
     16 C16        -1.1715    1.6662   50.4173 C.ar    1  ZINC000790205345   -0.1300
     17 C17        -0.6123    0.5268   49.8678 C.ar    1  ZINC000790205345   -0.0900
     18 C18        -0.7779    0.2536   48.5244 C.ar    1  ZINC000790205345   -0.1500
     19 C19        -1.5068    1.1243   47.7248 C.ar    1  ZINC000790205345    0.1800
     20 N20        -1.6767    0.8500   46.3630 N.am    1  ZINC000790205345   -0.5700
     21 C21        -1.3997   -0.4379   45.7087 C.3     1  ZINC000790205345    0.0600
     22 C22        -1.7561   -0.1833   44.2314 C.3     1  ZINC000790205345    0.0400
     23 O23        -2.1919    1.2069   44.2082 O.3     1  ZINC000790205345   -0.3200
     24 C24        -2.1239    1.7162   45.4434 C.2     1  ZINC000790205345    0.6400
     25 O25        -2.4316    2.8620   45.7061 O.2     1  ZINC000790205345   -0.5000
     26 C26        -2.0712    2.2647   48.2806 C.ar    1  ZINC000790205345   -0.1400
     27 C27        -7.0037    0.6437   54.0437 C.ar    1  ZINC000790205345   -0.1500
     28 C28        -8.1769    0.2389   54.6498 C.ar    1  ZINC000790205345   -0.0500
     29 C29        -8.4958    0.6924   56.0511 C.3     1  ZINC000790205345   -0.1200
     30 H30       -11.1239   -0.3197   54.4211 H       1  ZINC000790205345    0.0700
     31 H31       -10.6142   -2.0180   54.2650 H       1  ZINC000790205345    0.0600
     32 H32       -10.1794   -1.0884   55.7193 H       1  ZINC000790205345    0.0700
     33 H33        -9.4539   -1.6525   52.1640 H       1  ZINC000790205345    0.1300
     34 H34        -7.3696   -0.9282   51.0728 H       1  ZINC000790205345    0.1300
     35 H35        -6.1140    2.6166   52.2304 H       1  ZINC000790205345    0.1000
     36 H36        -4.7106    2.1718   53.2309 H       1  ZINC000790205345    0.0900
     37 H37        -2.7034    3.5598   53.2917 H       1  ZINC000790205345    0.0600
     38 H38        -2.9251    5.1068   52.4398 H       1  ZINC000790205345    0.0800
     39 H39        -4.3423    4.1975   53.0168 H       1  ZINC000790205345    0.0700
     40 H40        -4.0872    3.8873   48.7696 H       1  ZINC000790205345    0.0600
     41 H41        -3.7340    5.4266   49.5907 H       1  ZINC000790205345    0.0700
     42 H42        -2.6268    4.8102   48.3407 H       1  ZINC000790205345    0.0800
     43 H43        -1.0406    1.8777   51.4682 H       1  ZINC000790205345    0.1300
     44 H44        -0.0453   -0.1497   50.4900 H       1  ZINC000790205345    0.1300
     45 H45        -0.3406   -0.6361   48.0959 H       1  ZINC000790205345    0.1300
     46 H46        -0.3464   -0.6995   45.8089 H       1  ZINC000790205345    0.1000
     47 H47        -2.0314   -1.2225   46.1252 H       1  ZINC000790205345    0.1000
     48 H48        -0.8796   -0.3195   43.5980 H       1  ZINC000790205345    0.1100
     49 H49        -2.5642   -0.8424   43.9142 H       1  ZINC000790205345    0.1100
     50 H50        -2.6389    2.9437   47.6614 H       1  ZINC000790205345    0.1600
     51 H51        -6.3166    1.2878   54.5722 H       1  ZINC000790205345    0.1300
     52 H52        -9.0526    1.6287   56.0122 H       1  ZINC000790205345    0.0700
     53 H53        -9.0968   -0.0672   56.5510 H       1  ZINC000790205345    0.0700
     54 H54        -7.5686    0.8440   56.6038 H       1  ZINC000790205345    0.0700
@<TRIPOS>BOND
     1     1     2    1
     2     1    30    1
     3     1    31    1
     4     1    32    1
     5     2    28   ar
     6     2     3   ar
     7     3     4   ar
     8     3    33    1
     9     4     5   ar
    10     4    34    1
    11     5     6    1
    12     5    27   ar
    13     6     7    1
    14     7     8    1
    15     7    35    1
    16     7    36    1
    17     8     9    2
    18     8    10   am
    19    10    11    1
    20    10    12    1
    21    11    37    1
    22    11    38    1
    23    11    39    1
    24    12    13    1
    25    12    14    1
    26    12    15    1
    27    14    40    1
    28    14    41    1
    29    14    42    1
    30    15    26   ar
    31    15    16   ar
    32    16    17   ar
    33    16    43    1
    34    17    18   ar
    35    17    44    1
    36    18    19   ar
    37    18    45    1
    38    19    20    1
    39    19    26   ar
    40    20    24   am
    41    20    21    1
    42    21    22    1
    43    21    46    1
    44    21    47    1
    45    22    23    1
    46    22    48    1
    47    22    49    1
    48    23    24    1
    49    24    25    2
    50    26    50    1
    51    27    28   ar
    52    27    51    1
    53    28    29    1
    54    29    52    1
    55    29    53    1
    56    29    54    1
@<TRIPOS>SUBSTRUCTURE
     1 ZINC000790205345        1 TEMP              0 ****  ****    0 ROOT


##########                                Name:    ZINC000188380122
##########                DOCK_Rotatable_Bonds:                   6
##########                         Heavy_Atoms:                  27
##########                    Molecular_Weight:             396.433
##########                DOCK_Rotatable_Bonds:                   6
##########                       Formal_Charge:           0.0299998
##########                     HBond_Acceptors:                   8
##########                        HBond_Donors:                   1
##########                         Heavy_Atoms:                  27
##########                          Grid_Score:          -33.045654
##########                     Grid_vdw_energy:          -32.897789
##########                      Grid_es_energy:           -0.147867
##########           Internal_energy_repulsive:            9.091223

@<TRIPOS>MOLECULE
ZINC000188380122
 46 49 1 0 0
SMALL
USER_CHARGES


@<TRIPOS>ATOM
      1 O1         -3.4744    3.5924   49.3706 O.2     1  ZINC000188380122   -0.5200
      2 C2         -2.4964    3.1289   49.9180 C.2     1  ZINC000188380122    0.5200
      3 C3         -2.2833    3.3495   51.3935 C.3     1  ZINC000188380122   -0.0700
      4 C4         -3.5793    3.1207   52.1279 C.2     1  ZINC000188380122    0.0900
      5 C5         -4.0224    3.9642   53.0662 C.2     1  ZINC000188380122   -0.2400
      6 S6         -5.5563    3.3500   53.6794 S.3     1  ZINC000188380122    0.1000
      7 C7         -5.4422    1.9796   52.5780 C.2     1  ZINC000188380122    0.1100
      8 C8         -6.4344    0.8898   52.4585 C.ar    1  ZINC000188380122   -0.0200
      9 C9         -6.3849    0.0132   51.3740 C.ar    1  ZINC000188380122   -0.0400
     10 C10        -7.3136   -1.0020   51.2684 C.ar    1  ZINC000188380122   -0.1200
     11 C11        -8.2922   -1.1514   52.2347 C.ar    1  ZINC000188380122   -0.0600
     12 C12        -8.3466   -0.2854   53.3126 C.ar    1  ZINC000188380122   -0.1800
     13 C13        -9.4159   -0.4560   54.3608 C.3     1  ZINC000188380122    0.5100
     14 F14        -9.7842   -1.8035   54.4363 F       1  ZINC000188380122   -0.1700
     15 F15        -8.9239   -0.0367   55.6015 F       1  ZINC000188380122   -0.1700
     16 F16       -10.5324    0.3141   54.0174 F       1  ZINC000188380122   -0.1700
     17 C17        -7.4208    0.7301   53.4328 C.ar    1  ZINC000188380122   -0.0500
     18 N18        -4.3463    2.0836   51.8822 N.2     1  ZINC000188380122   -0.4300
     19 N19        -1.6030    2.4118   49.2080 N.am    1  ZINC000188380122   -0.7200
     20 C20        -1.8101    2.1974   47.7737 C.3     1  ZINC000188380122    0.1300
     21 H21        -1.9812    3.1247   47.2269 H       1  ZINC000188380122    0.1200
     22 C22        -2.8362    1.0952   47.4560 C.3     1  ZINC000188380122   -0.1800
     23 C23        -1.9010    0.6845   46.3127 C.3     1  ZINC000188380122    0.0900
     24 H24        -2.0958    1.2580   45.4064 H       1  ZINC000188380122    0.1200
     25 O25        -1.8419   -0.6942   46.0461 O.3     1  ZINC000188380122   -0.3700
     26 C26        -1.2556   -1.5635   46.9971 C.3     1  ZINC000188380122    0.0700
     27 C27         0.0902   -1.0205   47.4752 C.3     1  ZINC000188380122   -0.1600
     28 C28        -0.1405    0.3377   48.1449 C.3     1  ZINC000188380122   -0.1100
     29 C29        -0.7501    1.2837   47.1254 C.3     1  ZINC000188380122   -0.1500
     30 H30        -0.0071    1.8129   46.5287 H       1  ZINC000188380122    0.0900
     31 H31        -1.5300    2.6521   51.7601 H       1  ZINC000188380122    0.1100
     32 H32        -1.9452    4.3717   51.5630 H       1  ZINC000188380122    0.1100
     33 H33        -3.5257    4.8661   53.3922 H       1  ZINC000188380122    0.1800
     34 H34        -5.6219    0.1293   50.6186 H       1  ZINC000188380122    0.1500
     35 H35        -7.2765   -1.6812   50.4297 H       1  ZINC000188380122    0.1400
     36 H36        -9.0171   -1.9472   52.1472 H       1  ZINC000188380122    0.1500
     37 H37        -7.4643    1.4053   54.2746 H       1  ZINC000188380122    0.1400
     38 H38        -0.8228    2.0379   49.6467 H       1  ZINC000188380122    0.4000
     39 H39        -2.9276    0.3426   48.2393 H       1  ZINC000188380122    0.0900
     40 H40        -3.7996    1.4775   47.1185 H       1  ZINC000188380122    0.0800
     41 H41        -1.9251   -1.6643   47.8513 H       1  ZINC000188380122    0.0500
     42 H42        -1.1058   -2.5429   46.5428 H       1  ZINC000188380122    0.1000
     43 H43         0.5297   -1.7127   48.1934 H       1  ZINC000188380122    0.0800
     44 H44         0.7594   -0.8994   46.6233 H       1  ZINC000188380122    0.0800
     45 H45        -0.8222    0.2187   48.9870 H       1  ZINC000188380122    0.0700
     46 H46         0.8104    0.7384   48.4957 H       1  ZINC000188380122    0.0800
@<TRIPOS>BOND
     1     1     2    2
     2     2     3    1
     3     2    19   am
     4     3     4    1
     5     3    31    1
     6     3    32    1
     7     4    18    1
     8     4     5    2
     9     5     6    1
    10     5    33    1
    11     6     7    1
    12     7     8    1
    13     7    18    2
    14     8    17   ar
    15     8     9   ar
    16     9    10   ar
    17     9    34    1
    18    10    11   ar
    19    10    35    1
    20    11    12   ar
    21    11    36    1
    22    12    13    1
    23    12    17   ar
    24    13    14    1
    25    13    15    1
    26    13    16    1
    27    17    37    1
    28    19    20    1
    29    19    38    1
    30    20    21    1
    31    20    29    1
    32    20    22    1
    33    22    23    1
    34    22    39    1
    35    22    40    1
    36    23    24    1
    37    23    29    1
    38    23    25    1
    39    25    26    1
    40    26    27    1
    41    26    41    1
    42    26    42    1
    43    27    28    1
    44    27    43    1
    45    27    44    1
    46    28    29    1
    47    28    45    1
    48    28    46    1
    49    29    30    1
@<TRIPOS>SUBSTRUCTURE
     1 ZINC000188380122        1 TEMP              0 ****  ****    0 ROOT


##########                                Name:    ZINC000467185792
##########                DOCK_Rotatable_Bonds:                   9
##########                         Heavy_Atoms:                  29
##########                    Molecular_Weight:             412.513
##########                DOCK_Rotatable_Bonds:                   9
##########                       Formal_Charge:                0.04
##########                     HBond_Acceptors:                   8
##########                        HBond_Donors:                   2
##########                         Heavy_Atoms:                  29
##########                          Grid_Score:          -33.015144
##########                     Grid_vdw_energy:          -32.779312
##########                      Grid_es_energy:           -0.235833
##########           Internal_energy_repulsive:           20.206669

@<TRIPOS>MOLECULE
ZINC000467185792
 53 55 1 0 0
SMALL
USER_CHARGES


@<TRIPOS>ATOM
      1 C1         -2.9380    2.4363   47.7080 C.3     1  ZINC000467185792   -0.1500
      2 C2         -2.4179    1.9708   49.0695 C.3     1  ZINC000467185792   -0.1200
      3 C3         -3.4550    2.2905   50.1480 C.3     1  ZINC000467185792    0.0600
      4 O4         -4.4448    1.2602   50.1773 O.3     1  ZINC000467185792   -0.3100
      5 C5         -5.2264    1.1867   51.2867 C.ar    1  ZINC000467185792    0.1400
      6 C6         -5.2701    2.2526   52.1748 C.ar    1  ZINC000467185792   -0.2100
      7 C7         -6.0627    2.1814   53.3014 C.ar    1  ZINC000467185792   -0.0400
      8 C8         -6.8202    1.0374   53.5477 C.ar    1  ZINC000467185792   -0.0600
      9 C9         -7.6741    0.9577   54.7581 C.2     1  ZINC000467185792    0.1400
     10 C10        -7.4155    1.6714   55.8683 C.2     1  ZINC000467185792   -0.3000
     11 S11        -8.6532    1.2963   57.0652 S.3     1  ZINC000467185792    0.2000
     12 C12        -9.4172    0.1888   55.9287 C.2     1  ZINC000467185792    0.2800
     13 N13       -10.5608   -0.5567   56.1805 N.am    1  ZINC000467185792   -0.6100
     14 C14       -10.6215   -1.3514   57.2675 C.2     1  ZINC000467185792    0.5900
     15 O15        -9.6743   -1.4151   58.0277 O.2     1  ZINC000467185792   -0.4900
     16 C16       -11.8354   -2.1427   57.5348 C.2     1  ZINC000467185792   -0.2400
     17 C17       -12.7422   -1.7659   58.5234 C.2     1  ZINC000467185792    0.0800
     18 C18       -12.5130   -0.5313   59.3566 C.3     1  ZINC000467185792   -0.1200
     19 C19       -11.6975   -0.8980   60.5981 C.3     1  ZINC000467185792   -0.1400
     20 C20       -13.8729   -2.5683   58.7192 C.2     1  ZINC000467185792    0.0600
     21 C21       -14.8786   -2.1956   59.7779 C.3     1  ZINC000467185792   -0.0600
     22 C22       -16.0574   -3.1698   59.7269 C.3     1  ZINC000467185792   -0.1500
     23 N23       -14.0639   -3.6358   57.9927 N.2     1  ZINC000467185792   -0.1800
     24 N24       -13.2500   -4.0110   57.0753 N.am    1  ZINC000467185792   -0.4300
     25 C25       -12.1306   -3.3189   56.7892 C.2     1  ZINC000467185792    0.5000
     26 O26       -11.3754   -3.7000   55.9114 O.2     1  ZINC000467185792   -0.5300
     27 N27        -8.7475    0.1824   54.8179 N.2     1  ZINC000467185792   -0.5000
     28 C28        -6.7741   -0.0313   52.6539 C.ar    1  ZINC000467185792   -0.0600
     29 C29        -5.9836    0.0483   51.5264 C.ar    1  ZINC000467185792   -0.1500
     30 H30        -3.1147    3.5115   47.7348 H       1  ZINC000467185792    0.0600
     31 H31        -2.1991    2.2087   46.9396 H       1  ZINC000467185792    0.0700
     32 H32        -3.8706    1.9205   47.4795 H       1  ZINC000467185792    0.0600
     33 H33        -2.2412    0.8956   49.0426 H       1  ZINC000467185792    0.0700
     34 H34        -1.4853    2.4867   49.2978 H       1  ZINC000467185792    0.0700
     35 H35        -2.9632    2.3496   51.1189 H       1  ZINC000467185792    0.0600
     36 H36        -3.9308    3.2450   49.9229 H       1  ZINC000467185792    0.0600
     37 H37        -4.6827    3.1385   51.9836 H       1  ZINC000467185792    0.1300
     38 H38        -6.0961    3.0110   53.9922 H       1  ZINC000467185792    0.1300
     39 H39        -6.5913    2.3562   56.0032 H       1  ZINC000467185792    0.1800
     40 H40       -11.3162   -0.5059   55.5742 H       1  ZINC000467185792    0.4400
     41 H41       -11.9680    0.2075   58.7691 H       1  ZINC000467185792    0.0900
     42 H42       -13.4733   -0.1158   59.6624 H       1  ZINC000467185792    0.1300
     43 H43       -12.2425   -1.6368   61.1857 H       1  ZINC000467185792    0.0600
     44 H44       -10.7372   -1.3135   60.2924 H       1  ZINC000467185792    0.0600
     45 H45       -11.5317   -0.0050   61.2008 H       1  ZINC000467185792    0.0700
     46 H46       -14.4080   -2.2458   60.7598 H       1  ZINC000467185792    0.1000
     47 H47       -15.2369   -1.1821   59.5980 H       1  ZINC000467185792    0.1000
     48 H48       -16.7847   -2.9003   60.4927 H       1  ZINC000467185792    0.0600
     49 H49       -16.5279   -3.1196   58.7451 H       1  ZINC000467185792    0.0600
     50 H50       -15.6991   -4.1833   59.9068 H       1  ZINC000467185792    0.0600
     51 H51       -13.4487   -4.8147   56.5697 H       1  ZINC000467185792    0.4500
     52 H52        -7.3595   -0.9191   52.8421 H       1  ZINC000467185792    0.1300
     53 H53        -5.9476   -0.7792   50.8334 H       1  ZINC000467185792    0.1400
@<TRIPOS>BOND
     1     1     2    1
     2     1    30    1
     3     1    31    1
     4     1    32    1
     5     2     3    1
     6     2    33    1
     7     2    34    1
     8     3     4    1
     9     3    35    1
    10     3    36    1
    11     4     5    1
    12     5    29   ar
    13     5     6   ar
    14     6     7   ar
    15     6    37    1
    16     7     8   ar
    17     7    38    1
    18     8     9    1
    19     8    28   ar
    20     9    27    1
    21     9    10    2
    22    10    11    1
    23    10    39    1
    24    11    12    1
    25    12    13    1
    26    12    27    2
    27    13    14   am
    28    13    40    1
    29    14    15    2
    30    14    16    1
    31    16    25    1
    32    16    17    2
    33    17    18    1
    34    17    20    1
    35    18    19    1
    36    18    41    1
    37    18    42    1
    38    19    43    1
    39    19    44    1
    40    19    45    1
    41    20    21    1
    42    20    23    2
    43    21    22    1
    44    21    46    1
    45    21    47    1
    46    22    48    1
    47    22    49    1
    48    22    50    1
    49    23    24    1
    50    24    25   am
    51    24    51    1
    52    25    26    2
    53    28    29   ar
    54    28    52    1
    55    29    53    1
@<TRIPOS>SUBSTRUCTURE
     1 ZINC000467185792        1 TEMP              0 ****  ****    0 ROOT


##########                                Name:    ZINC001041713551
##########                DOCK_Rotatable_Bonds:                  10
##########                         Heavy_Atoms:                  22
##########                    Molecular_Weight:             330.448
##########                DOCK_Rotatable_Bonds:                  10
##########                       Formal_Charge:          -0.0100006
##########                     HBond_Acceptors:                   7
##########                        HBond_Donors:                   2
##########                         Heavy_Atoms:                  22
##########                          Grid_Score:          -32.994621
##########                     Grid_vdw_energy:          -31.701097
##########                      Grid_es_energy:           -1.293524
##########           Internal_energy_repulsive:            8.228456

@<TRIPOS>MOLECULE
ZINC001041713551
 48 49 1 0 0
SMALL
USER_CHARGES


@<TRIPOS>ATOM
      1 C1         -6.6564   -0.3225   67.8507 C.3     1  ZINC001041713551   -0.1500
      2 C2         -8.0659   -0.5560   67.3030 C.3     1  ZINC001041713551   -0.1100
      3 C3         -8.4911    0.6474   66.4593 C.3     1  ZINC001041713551   -0.1000
      4 S4         -7.3332    0.8575   65.0789 S.3     1  ZINC001041713551   -0.1800
      5 C5         -7.6387   -0.6136   64.0625 C.3     1  ZINC001041713551   -0.1300
      6 C6         -8.6697   -0.2926   63.0113 C.2     1  ZINC001041713551    0.5300
      7 O7         -9.5814    0.4650   63.2675 O.2     1  ZINC001041713551   -0.5100
      8 N8         -8.5785   -0.8476   61.7864 N.am    1  ZINC001041713551   -0.7300
      9 C9         -9.5799   -0.5342   60.7640 C.3     1  ZINC001041713551    0.1000
     10 C10        -9.1353   -1.1147   59.4200 C.3     1  ZINC001041713551    0.0900
     11 O11        -7.7667   -1.5258   59.4160 O.3     1  ZINC001041713551   -0.5200
     12 C12       -10.1028   -2.1672   58.8490 C.3     1  ZINC001041713551    0.0900
     13 N13        -9.8861   -1.5124   57.5443 N.am    1  ZINC001041713551   -0.6400
     14 C14        -9.9802   -1.9109   56.2602 C.2     1  ZINC001041713551    0.5500
     15 O15       -10.3123   -3.0482   56.0010 O.2     1  ZINC001041713551   -0.5100
     16 C16        -9.6729   -0.9434   55.1465 C.3     1  ZINC001041713551    0.0800
     17 H17       -10.2913   -0.0527   55.2577 H       1  ZINC001041713551    0.0800
     18 C18        -9.9695   -1.6056   53.7985 C.3     1  ZINC001041713551   -0.1500
     19 C19        -9.5980   -0.6383   52.6703 C.3     1  ZINC001041713551   -0.1200
     20 C20        -8.1243   -0.2460   52.8136 C.3     1  ZINC001041713551   -0.1600
     21 C21        -7.8990    0.3637   54.1996 C.3     1  ZINC001041713551    0.0600
     22 O22        -8.2932   -0.5755   55.2019 O.3     1  ZINC001041713551   -0.3600
     23 C23        -9.5250   -0.2459   58.2103 C.3     1  ZINC001041713551    0.1200
     24 H24        -6.6510    0.5750   68.4692 H       1  ZINC001041713551    0.0600
     25 H25        -6.3535   -1.1798   68.4517 H       1  ZINC001041713551    0.0600
     26 H26        -5.9606   -0.1963   67.0212 H       1  ZINC001041713551    0.0600
     27 H27        -8.0712   -1.4535   66.6845 H       1  ZINC001041713551    0.0700
     28 H28        -8.7617   -0.6823   68.1325 H       1  ZINC001041713551    0.0700
     29 H29        -9.4953    0.4810   66.0692 H       1  ZINC001041713551    0.0800
     30 H30        -8.4857    1.5449   67.0779 H       1  ZINC001041713551    0.0800
     31 H31        -6.7108   -0.9205   63.5796 H       1  ZINC001041713551    0.1100
     32 H32        -8.0041   -1.4227   64.6948 H       1  ZINC001041713551    0.1100
     33 H33        -7.8501   -1.4545   61.5819 H       1  ZINC001041713551    0.4000
     34 H34       -10.5381   -0.9691   61.0485 H       1  ZINC001041713551    0.0900
     35 H35        -9.6835    0.5473   60.6762 H       1  ZINC001041713551    0.0900
     36 H36        -7.6423   -2.4793   59.5181 H       1  ZINC001041713551    0.3800
     37 H37        -9.7210   -3.1871   58.8975 H       1  ZINC001041713551    0.0900
     38 H38       -11.1226   -2.0752   59.2227 H       1  ZINC001041713551    0.1000
     39 H39        -9.3814   -2.5185   53.7038 H       1  ZINC001041713551    0.0800
     40 H40       -11.0307   -1.8469   53.7367 H       1  ZINC001041713551    0.0800
     41 H41        -9.7541   -1.1242   51.7072 H       1  ZINC001041713551    0.0700
     42 H42       -10.2208    0.2540   52.7353 H       1  ZINC001041713551    0.0700
     43 H43        -7.4989   -1.1314   52.6991 H       1  ZINC001041713551    0.0700
     44 H44        -7.8658    0.4851   52.0476 H       1  ZINC001041713551    0.0800
     45 H45        -6.8433    0.6056   54.3232 H       1  ZINC001041713551    0.1000
     46 H46        -8.4940    1.2716   54.2985 H       1  ZINC001041713551    0.0500
     47 H47       -10.3751    0.4105   58.3965 H       1  ZINC001041713551    0.1100
     48 H48        -8.6819    0.2683   57.7489 H       1  ZINC001041713551    0.1000
@<TRIPOS>BOND
     1     1     2    1
     2     1    24    1
     3     1    25    1
     4     1    26    1
     5     2     3    1
     6     2    27    1
     7     2    28    1
     8     3     4    1
     9     3    29    1
    10     3    30    1
    11     4     5    1
    12     5     6    1
    13     5    31    1
    14     5    32    1
    15     6     7    2
    16     6     8   am
    17     8     9    1
    18     8    33    1
    19     9    10    1
    20     9    34    1
    21     9    35    1
    22    10    23    1
    23    10    11    1
    24    10    12    1
    25    11    36    1
    26    12    13    1
    27    12    37    1
    28    12    38    1
    29    13    14   am
    30    13    23    1
    31    14    15    2
    32    14    16    1
    33    16    17    1
    34    16    22    1
    35    16    18    1
    36    18    19    1
    37    18    39    1
    38    18    40    1
    39    19    20    1
    40    19    41    1
    41    19    42    1
    42    20    21    1
    43    20    43    1
    44    20    44    1
    45    21    22    1
    46    21    45    1
    47    21    46    1
    48    23    47    1
    49    23    48    1
@<TRIPOS>SUBSTRUCTURE
     1 ZINC001041713551        1 TEMP              0 ****  ****    0 ROOT


##########                                Name:    ZINC000745364361
##########                DOCK_Rotatable_Bonds:                   8
##########                         Heavy_Atoms:                  29
##########                    Molecular_Weight:             398.434
##########                DOCK_Rotatable_Bonds:                   8
##########                       Formal_Charge:          0.00999923
##########                     HBond_Acceptors:                   7
##########                        HBond_Donors:                   1
##########                         Heavy_Atoms:                  29
##########                          Grid_Score:          -32.960239
##########                     Grid_vdw_energy:          -32.099964
##########                      Grid_es_energy:           -0.860276
##########           Internal_energy_repulsive:           14.413462

@<TRIPOS>MOLECULE
ZINC000745364361
 52 54 1 0 0
SMALL
USER_CHARGES


@<TRIPOS>ATOM
      1 C1        -10.7211   -2.1579   60.9091 C.3     1  ZINC000745364361   -0.1700
      2 C2        -11.6192   -1.4941   59.8632 C.3     1  ZINC000745364361    0.0700
      3 H3        -11.9907   -0.5462   60.2524 H       1  ZINC000745364361    0.1100
      4 O4        -12.7402   -2.3669   59.5636 O.3     1  ZINC000745364361   -0.3200
      5 C5        -13.8204   -2.2645   60.3537 C.2     1  ZINC000745364361    0.4700
      6 O6        -13.7440   -1.6804   61.4086 O.2     1  ZINC000745364361   -0.4900
      7 C7        -15.1284   -2.8779   59.9249 C.3     1  ZINC000745364361   -0.0400
      8 H8        -15.2129   -3.8816   60.3413 H       1  ZINC000745364361    0.1200
      9 C9        -16.2864   -2.0161   60.4324 C.3     1  ZINC000745364361   -0.1400
     10 C10       -15.1792   -2.9520   58.4206 C.ar    1  ZINC000745364361   -0.0500
     11 C11       -15.5687   -1.8471   57.6871 C.ar    1  ZINC000745364361   -0.1000
     12 C12       -15.6157   -1.9137   56.3069 C.ar    1  ZINC000745364361   -0.0900
     13 C13       -15.2733   -3.0852   55.6591 C.ar    1  ZINC000745364361   -0.1500
     14 C14       -14.8825   -4.1927   56.3929 C.ar    1  ZINC000745364361    0.1000
     15 F15       -14.5476   -5.3387   55.7606 F       1  ZINC000745364361   -0.1400
     16 C16       -14.8308   -4.1232   57.7745 C.ar    1  ZINC000745364361   -0.1400
     17 C17       -10.8265   -1.2449   58.6060 C.2     1  ZINC000745364361    0.5200
     18 O18        -9.6947   -0.8145   58.6779 O.2     1  ZINC000745364361   -0.5000
     19 N19       -11.3750   -1.5004   57.4017 N.am    1  ZINC000745364361   -0.6700
     20 C20       -10.6382   -1.2689   56.2331 C.ar    1  ZINC000745364361    0.1200
     21 C21       -10.1174   -2.3388   55.5173 C.ar    1  ZINC000745364361   -0.1100
     22 C22        -9.3912   -2.1106   54.3656 C.ar    1  ZINC000745364361   -0.1400
     23 C23        -9.1819   -0.8112   53.9228 C.ar    1  ZINC000745364361    0.1500
     24 N24        -8.4447   -0.5796   52.7545 N.am    1  ZINC000745364361   -0.5600
     25 C25        -7.1362    0.0841   52.7188 C.3     1  ZINC000745364361    0.0900
     26 C26        -6.5317   -0.2701   51.3421 C.3     1  ZINC000745364361   -0.1300
     27 C27        -7.8005   -0.5416   50.5011 C.3     1  ZINC000745364361   -0.1500
     28 C28        -8.8421   -0.9420   51.5226 C.2     1  ZINC000745364361    0.5200
     29 O29        -9.8871   -1.5018   51.2664 O.2     1  ZINC000745364361   -0.5100
     30 C30        -9.7039    0.2587   54.6379 C.ar    1  ZINC000745364361   -0.1400
     31 C31       -10.4333    0.0302   55.7874 C.ar    1  ZINC000745364361   -0.0900
     32 H32       -11.2945   -2.3381   61.8184 H       1  ZINC000745364361    0.0800
     33 H33       -10.3497   -3.1059   60.5199 H       1  ZINC000745364361    0.0800
     34 H34        -9.8797   -1.5027   61.1340 H       1  ZINC000745364361    0.0800
     35 H35       -16.2020   -1.0124   60.0160 H       1  ZINC000745364361    0.0700
     36 H36       -17.2325   -2.4597   60.1223 H       1  ZINC000745364361    0.0800
     37 H37       -16.2497   -1.9625   61.5205 H       1  ZINC000745364361    0.0800
     38 H38       -15.8369   -0.9312   58.1926 H       1  ZINC000745364361    0.1300
     39 H39       -15.9206   -1.0498   55.7349 H       1  ZINC000745364361    0.1400
     40 H40       -15.3108   -3.1372   54.5811 H       1  ZINC000745364361    0.1400
     41 H41       -14.5258   -4.9862   58.3478 H       1  ZINC000745364361    0.1400
     42 H42       -12.2800   -1.8446   57.3442 H       1  ZINC000745364361    0.4100
     43 H43       -10.2801   -3.3494   55.8616 H       1  ZINC000745364361    0.1300
     44 H44        -8.9855   -2.9426   53.8092 H       1  ZINC000745364361    0.1600
     45 H45        -7.2580    1.1634   52.8108 H       1  ZINC000745364361    0.0800
     46 H46        -6.4996   -0.2938   53.5188 H       1  ZINC000745364361    0.0900
     47 H47        -5.9670    0.5693   50.9364 H       1  ZINC000745364361    0.1000
     48 H48        -5.9087   -1.1622   51.4075 H       1  ZINC000745364361    0.0900
     49 H49        -8.1071    0.3602   49.9711 H       1  ZINC000745364361    0.1100
     50 H50        -7.6256   -1.3569   49.7990 H       1  ZINC000745364361    0.1100
     51 H51        -9.5414    1.2692   54.2934 H       1  ZINC000745364361    0.1300
     52 H52       -10.8392    0.8623   56.3436 H       1  ZINC000745364361    0.1400
@<TRIPOS>BOND
     1     1     2    1
     2     1    32    1
     3     1    33    1
     4     1    34    1
     5     2     3    1
     6     2     4    1
     7     2    17    1
     8     4     5    1
     9     5     6    2
    10     5     7    1
    11     7     8    1
    12     7     9    1
    13     7    10    1
    14     9    35    1
    15     9    36    1
    16     9    37    1
    17    10    16   ar
    18    10    11   ar
    19    11    12   ar
    20    11    38    1
    21    12    13   ar
    22    12    39    1
    23    13    14   ar
    24    13    40    1
    25    14    15    1
    26    14    16   ar
    27    16    41    1
    28    17    18    2
    29    17    19   am
    30    19    20    1
    31    19    42    1
    32    20    31   ar
    33    20    21   ar
    34    21    22   ar
    35    21    43    1
    36    22    23   ar
    37    22    44    1
    38    23    24    1
    39    23    30   ar
    40    24    28   am
    41    24    25    1
    42    25    26    1
    43    25    45    1
    44    25    46    1
    45    26    27    1
    46    26    47    1
    47    26    48    1
    48    27    28    1
    49    27    49    1
    50    27    50    1
    51    28    29    2
    52    30    31   ar
    53    30    51    1
    54    31    52    1
@<TRIPOS>SUBSTRUCTURE
     1 ZINC000745364361        1 TEMP              0 ****  ****    0 ROOT


##########                                Name:    ZINC000538774026
##########                DOCK_Rotatable_Bonds:                  10
##########                         Heavy_Atoms:                  29
##########                    Molecular_Weight:             414.496
##########                DOCK_Rotatable_Bonds:                  10
##########                       Formal_Charge:            0.049999
##########                     HBond_Acceptors:                   9
##########                        HBond_Donors:                   2
##########                         Heavy_Atoms:                  29
##########                          Grid_Score:          -32.916256
##########                     Grid_vdw_energy:          -32.158302
##########                      Grid_es_energy:           -0.757954
##########           Internal_energy_repulsive:           27.901897

@<TRIPOS>MOLECULE
ZINC000538774026
 61 62 1 0 0
SMALL
USER_CHARGES


@<TRIPOS>ATOM
      1 C1         -9.3912   -0.5756   56.8853 C.3     1  ZINC000538774026   -0.1500
      2 C2         -9.6421   -1.0709   55.4595 C.3     1  ZINC000538774026   -0.1100
      3 C3        -10.9274   -1.9003   55.4265 C.3     1  ZINC000538774026   -0.1400
      4 C4         -9.7850    0.1288   54.5208 C.3     1  ZINC000538774026    0.1400
      5 N5         -8.4574    0.6581   54.1992 N.pl3   1  ZINC000538774026   -0.3400
      6 N6         -7.6813    1.4899   55.0163 N.2     1  ZINC000538774026   -0.2500
      7 C7         -6.5615    1.7522   54.3925 C.2     1  ZINC000538774026    0.0500
      8 C8         -6.5827    1.0962   53.1532 C.2     1  ZINC000538774026    0.0800
      9 N9         -5.5628    1.1245   52.1823 N.am    1  ZINC000538774026   -0.6600
     10 C10        -4.9158    2.2769   51.9179 C.2     1  ZINC000538774026    0.7100
     11 O11        -5.2115    3.2918   52.5189 O.2     1  ZINC000538774026   -0.5700
     12 N12        -3.9410    2.3043   50.9877 N.am    1  ZINC000538774026   -0.7300
     13 C13        -3.2389    3.5574   50.6991 C.3     1  ZINC000538774026    0.1600
     14 C14        -1.9102    3.5837   51.4573 C.3     1  ZINC000538774026   -0.1300
     15 C15        -1.0464    2.4013   51.0137 C.3     1  ZINC000538774026   -0.1000
     16 C16        -0.7781    2.5012   49.5107 C.3     1  ZINC000538774026   -0.0800
     17 C17         0.0727    1.3366   49.0738 C.2     1  ZINC000538774026    0.4700
     18 O18         1.2620    1.4822   48.9179 O.2     1  ZINC000538774026   -0.5000
     19 O19        -0.4907    0.1376   48.8579 O.3     1  ZINC000538774026   -0.3500
     20 C20        -0.1569   -0.5333   47.6142 C.3     1  ZINC000538774026    0.1200
     21 C21        -1.2598   -1.5335   47.2622 C.3     1  ZINC000538774026   -0.1800
     22 C22        -0.0307    0.5018   46.4944 C.3     1  ZINC000538774026   -0.1400
     23 C23         1.1717   -1.2748   47.7753 C.3     1  ZINC000538774026   -0.1800
     24 C24        -2.1068    2.4749   48.7527 C.3     1  ZINC000538774026   -0.1100
     25 C25        -2.9706    3.6573   49.1961 C.3     1  ZINC000538774026   -0.1300
     26 C26        -7.7583    0.4244   53.0581 C.2     1  ZINC000538774026   -0.0500
     27 C27        -8.2097   -0.4200   51.8943 C.3     1  ZINC000538774026    0.3500
     28 F28        -8.5382   -1.7020   52.3480 F       1  ZINC000538774026   -0.1900
     29 F29        -9.3326    0.1665   51.3006 F       1  ZINC000538774026   -0.1900
     30 H30        -9.2894   -1.4303   57.5541 H       1  ZINC000538774026    0.0600
     31 H31        -8.4756    0.0152   56.9088 H       1  ZINC000538774026    0.0600
     32 H32       -10.2299    0.0409   57.2086 H       1  ZINC000538774026    0.0600
     33 H33        -8.8034   -1.6874   55.1361 H       1  ZINC000538774026    0.0800
     34 H34       -11.7661   -1.2837   55.7498 H       1  ZINC000538774026    0.0600
     35 H35       -11.1062   -2.2530   54.4107 H       1  ZINC000538774026    0.0600
     36 H36       -10.8256   -2.7549   56.0953 H       1  ZINC000538774026    0.0600
     37 H37       -10.2831   -0.1850   53.6034 H       1  ZINC000538774026    0.1000
     38 H38       -10.3766    0.9035   55.0086 H       1  ZINC000538774026    0.1000
     39 H39        -5.7582    2.3688   54.7677 H       1  ZINC000538774026    0.2100
     40 H40        -5.3261    0.3147   51.7037 H       1  ZINC000538774026    0.4100
     41 H41        -3.7043    1.4945   50.5091 H       1  ZINC000538774026    0.4000
     42 H42        -3.8542    4.3997   51.0151 H       1  ZINC000538774026    0.1000
     43 H43        -1.3878    4.5160   51.2426 H       1  ZINC000538774026    0.0800
     44 H44        -2.1013    3.5125   52.5280 H       1  ZINC000538774026    0.0800
     45 H45        -0.0998    2.4201   51.5538 H       1  ZINC000538774026    0.0700
     46 H46        -1.5688    1.4690   51.2283 H       1  ZINC000538774026    0.0700
     47 H47        -0.2557    3.4335   49.2961 H       1  ZINC000538774026    0.1100
     48 H48        -2.2063   -1.0052   47.1476 H       1  ZINC000538774026    0.0600
     49 H49        -1.0092   -2.0371   46.3286 H       1  ZINC000538774026    0.0700
     50 H50        -1.3497   -2.2708   48.0599 H       1  ZINC000538774026    0.0800
     51 H51         0.7550    1.2144   46.7451 H       1  ZINC000538774026    0.0700
     52 H52         0.2197   -0.0018   45.5608 H       1  ZINC000538774026    0.0800
     53 H53        -0.9773    1.0301   46.3797 H       1  ZINC000538774026    0.0700
     54 H54         1.0819   -2.0121   48.5730 H       1  ZINC000538774026    0.0800
     55 H55         1.4223   -1.7783   46.8416 H       1  ZINC000538774026    0.0700
     56 H56         1.9575   -0.5621   48.0260 H       1  ZINC000538774026    0.0600
     57 H57        -1.9156    2.5460   47.6819 H       1  ZINC000538774026    0.0800
     58 H58        -2.6292    1.5426   48.9673 H       1  ZINC000538774026    0.0600
     59 H59        -3.9172    3.6385   48.6560 H       1  ZINC000538774026    0.0800
     60 H60        -2.4482    4.5895   48.9815 H       1  ZINC000538774026    0.0900
     61 H61        -7.4055   -0.4887   51.1618 H       1  ZINC000538774026    0.1300
@<TRIPOS>BOND
     1     1     2    1
     2     1    30    1
     3     1    31    1
     4     1    32    1
     5     2     3    1
     6     2     4    1
     7     2    33    1
     8     3    34    1
     9     3    35    1
    10     3    36    1
    11     4     5    1
    12     4    37    1
    13     4    38    1
    14     5    26    1
    15     5     6    1
    16     6     7    2
    17     7     8    1
    18     7    39    1
    19     8     9    1
    20     8    26    2
    21     9    10   am
    22     9    40    1
    23    10    11    2
    24    10    12   am
    25    12    13    1
    26    12    41    1
    27    13    25    1
    28    13    14    1
    29    13    42    1
    30    14    15    1
    31    14    43    1
    32    14    44    1
    33    15    16    1
    34    15    45    1
    35    15    46    1
    36    16    17    1
    37    16    24    1
    38    16    47    1
    39    17    18    2
    40    17    19    1
    41    19    20    1
    42    20    21    1
    43    20    22    1
    44    20    23    1
    45    21    48    1
    46    21    49    1
    47    21    50    1
    48    22    51    1
    49    22    52    1
    50    22    53    1
    51    23    54    1
    52    23    55    1
    53    23    56    1
    54    24    25    1
    55    24    57    1
    56    24    58    1
    57    25    59    1
    58    25    60    1
    59    26    27    1
    60    27    28    1
    61    27    29    1
    62    27    61    1
@<TRIPOS>SUBSTRUCTURE
     1 ZINC000538774026        1 TEMP              0 ****  ****    0 ROOT


##########                                Name:     oleObject14.pdb
##########                DOCK_Rotatable_Bonds:                   9
##########                         Heavy_Atoms:                  33
##########                    Molecular_Weight:             484.424
##########                DOCK_Rotatable_Bonds:                   9
##########                       Formal_Charge:         0.000299782
##########                     HBond_Acceptors:                   7
##########                        HBond_Donors:                   1
##########                         Heavy_Atoms:                  33
##########                          Grid_Score:          -32.894211
##########                     Grid_vdw_energy:          -33.019032
##########                      Grid_es_energy:            0.124820
##########           Internal_energy_repulsive:           14.967533

@<TRIPOS>MOLECULE
oleObject14.pdb
 60 63 1 0 0
SMALL
NO_CHARGES


@<TRIPOS>ATOM
      1 C          -4.9950    2.1894   51.9546 C.ar    1  UNL         0.0422
      2 C          -5.5756    2.8278   53.0618 C.ar    1  UNL        -0.0408
      3 C          -6.5368    2.1574   53.8367 C.ar    1  UNL        -0.0288
      4 C          -6.9229    0.8406   53.5061 C.ar    1  UNL         0.0937
      5 C          -6.3342    0.2070   52.3926 C.ar    1  UNL         0.0723
      6 C          -5.3734    0.8799   51.6195 C.ar    1  UNL        -0.0221
      7 CL         -6.7846   -1.4282   51.9466 Cl      1  UNL        -0.0814
      8 O          -7.8640    0.1467   54.2421 O.3     1  UNL        -0.3432
      9 C          -8.1003    0.3687   55.6437 C.3     1  UNL         0.0661
     10 C          -9.2702   -0.5404   56.0736 C.3     1  UNL         0.0222
     11 N          -9.2523   -0.8831   57.5131 N.4     1  UNL        -0.3010
     12 C          -9.5847    0.2469   58.4120 C.3     1  UNL        -0.0010
     13 C          -9.4400   -0.1396   59.9009 C.3     1  UNL        -0.0289
     14 C         -10.2521   -1.4028   60.2758 C.3     1  UNL         0.0382
     15 C          -9.9597   -2.5416   59.2664 C.3     1  UNL        -0.0289
     16 C         -10.0573   -2.0926   57.7894 C.3     1  UNL        -0.0010
     17 C         -11.7655   -1.0959   60.3947 C.2     1  UNL         0.2156
     18 O         -12.3045   -0.2426   59.7138 O.2     1  UNL        -0.2774
     19 N         -12.5545   -1.8371   61.2650 N.am    1  UNL        -0.3025
     20 C         -14.0014   -1.6934   61.5130 C.3     1  UNL         0.0900
     21 C         -14.3518   -0.4130   62.2687 C.ar    1  UNL        -0.0217
     22 C         -14.3691    0.8367   61.6169 C.ar    1  UNL        -0.0568
     23 C         -14.6825    2.0057   62.3295 C.ar    1  UNL        -0.0619
     24 C         -14.9846    1.9348   63.6985 C.ar    1  UNL        -0.0622
     25 C         -14.9755    0.6933   64.3535 C.ar    1  UNL        -0.0619
     26 C         -14.6621   -0.4754   63.6406 C.ar    1  UNL        -0.0568
     27 C         -14.8077   -1.7957   60.2218 C.ar    1  UNL         0.0652
     28 C         -14.3292   -2.5094   59.1035 C.ar    1  UNL        -0.0383
     29 C         -15.1137   -2.5599   57.9402 C.ar    1  UNL        -0.0588
     30 C         -16.3491   -1.8939   57.9347 C.ar    1  UNL        -0.0438
     31 C         -16.7491   -1.2042   59.0921 C.ar    1  UNL         0.0272
     32 N         -15.9969   -1.1545   60.2101 N.ar    1  UNL        -0.2590
     33 CL         -3.7976    3.0275   50.9910 Cl      1  UNL        -0.0843
     34 H          -5.2820    3.8412   53.3206 H       1  UNL         0.0639
     35 H          -6.9721    2.6699   54.6884 H       1  UNL         0.0652
     36 H          -4.9234    0.3868   50.7625 H       1  UNL         0.0655
     37 H          -8.3541    1.4212   55.8184 H       1  UNL         0.0586
     38 H          -7.2057    0.1114   56.2253 H       1  UNL         0.0586
     39 H          -9.2078   -1.4638   55.4831 H       1  UNL         0.0455
     40 H         -10.2184   -0.0495   55.8179 H       1  UNL         0.0455
     41 H         -10.6135    0.5802   58.2224 H       1  UNL         0.0431
     42 H          -8.9209    1.0982   58.2224 H       1  UNL         0.0431
     43 H          -9.7390    0.7059   60.5313 H       1  UNL         0.0288
     44 H          -8.3787   -0.3259   60.1105 H       1  UNL         0.0288
     45 H          -9.8817   -1.7544   61.2424 H       1  UNL         0.0402
     46 H         -10.6377   -3.3859   59.4452 H       1  UNL         0.0288
     47 H          -8.9426   -2.9144   59.4444 H       1  UNL         0.0288
     48 H         -11.1076   -1.9016   57.5355 H       1  UNL         0.0431
     49 H          -9.7148   -2.9193   57.1536 H       1  UNL         0.0431
     50 H         -12.0956   -2.6234   61.7070 H       1  UNL         0.1504
     51 H         -14.3012   -2.5476   62.1336 H       1  UNL         0.0624
     52 H         -14.1309    0.9065   60.5597 H       1  UNL         0.0626
     53 H         -14.6899    2.9655   61.8210 H       1  UNL         0.0623
     54 H         -15.2274    2.8390   64.2496 H       1  UNL         0.0623
     55 H         -15.2125    0.6363   65.4120 H       1  UNL         0.0623
     56 H         -14.6598   -1.4318   64.1564 H       1  UNL         0.0626
     57 H         -13.3686   -3.0147   59.1346 H       1  UNL         0.0643
     58 H         -14.7717   -3.1023   57.0635 H       1  UNL         0.0624
     59 H         -16.9837   -1.9102   57.0535 H       1  UNL         0.0639
     60 H         -17.7007   -0.6750   59.1252 H       1  UNL         0.0840
@<TRIPOS>BOND
     1     1     2   ar
     2     1     6   ar
     3     1    33    1
     4     2     3   ar
     5     2    34    1
     6     3     4   ar
     7     3    35    1
     8     4     5   ar
     9     4     8    1
    10     5     6   ar
    11     5     7    1
    12     6    36    1
    13     8     9    1
    14     9    10    1
    15     9    37    1
    16     9    38    1
    17    10    11    1
    18    10    39    1
    19    10    40    1
    20    11    12    1
    21    11    16    1
    22    12    13    1
    23    12    41    1
    24    12    42    1
    25    13    14    1
    26    13    43    1
    27    13    44    1
    28    14    15    1
    29    14    17    1
    30    14    45    1
    31    15    16    1
    32    15    46    1
    33    15    47    1
    34    16    48    1
    35    16    49    1
    36    17    18    2
    37    17    19   am
    38    19    20    1
    39    19    50    1
    40    20    21    1
    41    20    27    1
    42    20    51    1
    43    21    22   ar
    44    21    26   ar
    45    22    23   ar
    46    22    52    1
    47    23    24   ar
    48    23    53    1
    49    24    25   ar
    50    24    54    1
    51    25    26   ar
    52    25    55    1
    53    26    56    1
    54    27    28   ar
    55    27    32   ar
    56    28    29   ar
    57    28    57    1
    58    29    30   ar
    59    29    58    1
    60    30    31   ar
    61    30    59    1
    62    31    32   ar
    63    31    60    1
@<TRIPOS>SUBSTRUCTURE
     1 UNL         1 TEMP              0 ****  ****    0 ROOT


##########                                Name:    ZINC000623695407
##########                DOCK_Rotatable_Bonds:                  10
##########                         Heavy_Atoms:                  27
##########                    Molecular_Weight:             368.479
##########                DOCK_Rotatable_Bonds:                  10
##########                       Formal_Charge:           0.0299989
##########                     HBond_Acceptors:                   6
##########                        HBond_Donors:                   2
##########                         Heavy_Atoms:                  27
##########                          Grid_Score:          -32.871006
##########                     Grid_vdw_energy:          -33.080643
##########                      Grid_es_energy:            0.209635
##########           Internal_energy_repulsive:           15.754316

@<TRIPOS>MOLECULE
ZINC000623695407
 55 57 1 0 0
SMALL
USER_CHARGES


@<TRIPOS>ATOM
      1 C1         -9.5752   -1.7151   59.8411 C.3     1  ZINC000623695407    0.0300
      2 O2         -9.4626   -0.3454   59.4493 O.3     1  ZINC000623695407   -0.3200
      3 C3         -9.3845   -0.0893   58.1169 C.ar    1  ZINC000623695407    0.1300
      4 C4         -8.1687    0.2588   57.5464 C.ar    1  ZINC000623695407   -0.2100
      5 C5         -8.0918    0.5182   56.1917 C.ar    1  ZINC000623695407   -0.0600
      6 C6         -9.2253    0.4315   55.4046 C.ar    1  ZINC000623695407   -0.1100
      7 C7         -9.1388    0.7155   53.9272 C.3     1  ZINC000623695407    0.0600
      8 N8         -8.3689   -0.3482   53.2684 N.3     1  ZINC000623695407   -0.4600
      9 C9         -9.2181   -1.1178   52.3402 C.3     1  ZINC000623695407    0.0000
     10 C10        -8.0440   -1.1141   51.3512 C.3     1  ZINC000623695407   -0.1300
     11 C11        -7.6497    0.1720   52.0906 C.3     1  ZINC000623695407    0.0100
     12 H12        -8.0997    1.0708   51.6689 H       1  ZINC000623695407    0.0900
     13 C13        -6.1417    0.3118   52.3084 C.3     1  ZINC000623695407    0.1600
     14 N14        -5.4959    0.6645   51.0416 N.am    1  ZINC000623695407   -0.7400
     15 C15        -4.4818    1.5522   51.0264 C.2     1  ZINC000623695407    0.7100
     16 O16        -4.1021    2.0592   52.0642 O.2     1  ZINC000623695407   -0.5900
     17 N17        -3.8888    1.8778   49.8608 N.am    1  ZINC000623695407   -0.7400
     18 C18        -2.7877    2.8441   49.8441 C.3     1  ZINC000623695407    0.1700
     19 H19        -2.7801    3.4026   50.7801 H       1  ZINC000623695407    0.0900
     20 C20        -1.4598    2.1014   49.6824 C.3     1  ZINC000623695407   -0.1600
     21 C21        -2.9764    3.8120   48.6742 C.3     1  ZINC000623695407   -0.0900
     22 C22        -2.5094    3.1571   47.4000 C.ar    1  ZINC000623695407   -0.0300
     23 C23        -3.1540    2.0357   46.9007 C.ar    1  ZINC000623695407   -0.1700
     24 C24        -2.6973    1.4620   45.7292 C.ar    1  ZINC000623695407    0.1000
     25 N25        -1.6618    1.9688   45.0891 N.ar    1  ZINC000623695407   -0.4900
     26 C26        -1.0246    3.0339   45.5344 C.ar    1  ZINC000623695407    0.1000
     27 C27        -1.4282    3.6648   46.6959 C.ar    1  ZINC000623695407   -0.1700
     28 C28       -10.4380    0.0843   55.9708 C.ar    1  ZINC000623695407   -0.0700
     29 C29       -10.5192   -0.1811   57.3241 C.ar    1  ZINC000623695407   -0.1500
     30 H30        -9.6289   -1.7789   60.9279 H       1  ZINC000623695407    0.1000
     31 H31       -10.4784   -2.1441   59.4070 H       1  ZINC000623695407    0.0600
     32 H32        -8.7045   -2.2671   59.4873 H       1  ZINC000623695407    0.0600
     33 H33        -7.2833    0.3273   58.1609 H       1  ZINC000623695407    0.1300
     34 H34        -7.1456    0.7892   55.7471 H       1  ZINC000623695407    0.1200
     35 H35       -10.1429    0.7522   53.5048 H       1  ZINC000623695407    0.0600
     36 H36        -8.6431    1.6734   53.7697 H       1  ZINC000623695407    0.0700
     37 H37        -9.4732   -2.1117   52.7078 H       1  ZINC000623695407    0.0900
     38 H38       -10.0867   -0.5632   51.9852 H       1  ZINC000623695407    0.0700
     39 H39        -7.3444   -1.9391   51.4860 H       1  ZINC000623695407    0.1000
     40 H40        -8.3362   -0.9601   50.3124 H       1  ZINC000623695407    0.0800
     41 H41        -5.9518    1.0942   53.0433 H       1  ZINC000623695407    0.0700
     42 H42        -5.7379   -0.6334   52.6714 H       1  ZINC000623695407    0.0700
     43 H43        -5.7980    0.2591   50.2138 H       1  ZINC000623695407    0.3900
     44 H44        -4.1910    1.4724   49.0330 H       1  ZINC000623695407    0.3900
     45 H45        -0.6407    2.8205   49.6700 H       1  ZINC000623695407    0.0700
     46 H46        -1.3255    1.4119   50.5158 H       1  ZINC000623695407    0.0700
     47 H47        -1.4675    1.5430   48.7464 H       1  ZINC000623695407    0.0600
     48 H48        -4.0313    4.0715   48.5839 H       1  ZINC000623695407    0.1000
     49 H49        -2.3940    4.7159   48.8529 H       1  ZINC000623695407    0.0800
     50 H50        -4.0022    1.6156   47.4208 H       1  ZINC000623695407    0.1300
     51 H51        -3.1940    0.5883   45.3337 H       1  ZINC000623695407    0.1500
     52 H52        -0.1801    3.4202   44.9829 H       1  ZINC000623695407    0.1600
     53 H53        -0.9025    4.5371   47.0555 H       1  ZINC000623695407    0.1400
     54 H54       -11.3219    0.0170   55.3538 H       1  ZINC000623695407    0.1200
     55 H55       -11.4666   -0.4523   57.7658 H       1  ZINC000623695407    0.1300
@<TRIPOS>BOND
     1     1     2    1
     2     1    30    1
     3     1    31    1
     4     1    32    1
     5     2     3    1
     6     3    29   ar
     7     3     4   ar
     8     4     5   ar
     9     4    33    1
    10     5     6   ar
    11     5    34    1
    12     6     7    1
    13     6    28   ar
    14     7     8    1
    15     7    35    1
    16     7    36    1
    17     8    11    1
    18     8     9    1
    19     9    10    1
    20     9    37    1
    21     9    38    1
    22    10    11    1
    23    10    39    1
    24    10    40    1
    25    11    12    1
    26    11    13    1
    27    13    14    1
    28    13    41    1
    29    13    42    1
    30    14    15   am
    31    14    43    1
    32    15    16    2
    33    15    17   am
    34    17    18    1
    35    17    44    1
    36    18    19    1
    37    18    20    1
    38    18    21    1
    39    20    45    1
    40    20    46    1
    41    20    47    1
    42    21    22    1
    43    21    48    1
    44    21    49    1
    45    22    27   ar
    46    22    23   ar
    47    23    24   ar
    48    23    50    1
    49    24    25   ar
    50    24    51    1
    51    25    26   ar
    52    26    27   ar
    53    26    52    1
    54    27    53    1
    55    28    29   ar
    56    28    54    1
    57    29    55    1
@<TRIPOS>SUBSTRUCTURE
     1 ZINC000623695407        1 TEMP              0 ****  ****    0 ROOT


##########                                Name:    ZINC000175255939
##########                DOCK_Rotatable_Bonds:                   8
##########                         Heavy_Atoms:                  28
##########                    Molecular_Weight:             394.375
##########                DOCK_Rotatable_Bonds:                   8
##########                       Formal_Charge:          -0.0399999
##########                     HBond_Acceptors:                   9
##########                        HBond_Donors:                   1
##########                         Heavy_Atoms:                  28
##########                          Grid_Score:          -32.856892
##########                     Grid_vdw_energy:          -33.881287
##########                      Grid_es_energy:            1.024396
##########           Internal_energy_repulsive:           18.204630

@<TRIPOS>MOLECULE
ZINC000175255939
 48 50 1 0 0
SMALL
USER_CHARGES


@<TRIPOS>ATOM
      1 C1          2.1968    0.2312   46.2734 C.3     1  ZINC000175255939    0.0300
      2 O2          1.4729   -0.9838   46.6025 O.3     1  ZINC000175255939   -0.3600
      3 C3          0.2098   -0.8425   47.0342 C.2     1  ZINC000175255939    0.4600
      4 O4         -0.4519   -1.8190   47.2960 O.2     1  ZINC000175255939   -0.5000
      5 C5         -0.3829    0.5339   47.1922 C.3     1  ZINC000175255939   -0.0800
      6 H6          0.4187    1.2642   47.3030 H       1  ZINC000175255939    0.1100
      7 C7         -1.2165    0.8754   45.9555 C.3     1  ZINC000175255939   -0.1200
      8 C8         -1.8183    2.2729   46.1161 C.3     1  ZINC000175255939   -0.1100
      9 C9         -2.7116    2.3039   47.3578 C.3     1  ZINC000175255939   -0.1200
     10 C10        -1.8780    1.9625   48.5945 C.3     1  ZINC000175255939   -0.1000
     11 H11        -1.0765    2.6928   48.7053 H       1  ZINC000175255939    0.1100
     12 C12        -2.7581    1.9931   49.8175 C.2     1  ZINC000175255939    0.5100
     13 O13        -2.2808    2.2531   50.9016 O.2     1  ZINC000175255939   -0.4800
     14 N14        -4.0755    1.7315   49.7063 N.am    1  ZINC000175255939   -0.6300
     15 C15        -4.8855    1.7581   50.8328 C.2     1  ZINC000175255939    0.2100
     16 C16        -5.7965    0.8150   51.2048 C.2     1  ZINC000175255939   -0.2600
     17 C17        -6.3398    1.3245   52.4127 C.2     1  ZINC000175255939    0.0900
     18 C18        -7.3856    0.6931   53.2548 C.ar    1  ZINC000175255939   -0.0500
     19 C19        -7.4362    0.9595   54.6220 C.ar    1  ZINC000175255939   -0.0600
     20 C20        -8.4091    0.3714   55.4021 C.ar    1  ZINC000175255939   -0.1300
     21 C21        -9.3378   -0.4860   54.8271 C.ar    1  ZINC000175255939    0.1200
     22 O22       -10.2952   -1.0640   55.5981 O.3     1  ZINC000175255939   -0.3200
     23 C23       -10.7427   -2.3645   55.2105 C.3     1  ZINC000175255939    0.4100
     24 F24        -9.6365   -3.1958   55.0036 F       1  ZINC000175255939   -0.2000
     25 F25       -11.5470   -2.9015   56.2214 F       1  ZINC000175255939   -0.2000
     26 C26        -9.2899   -0.7531   53.4654 C.ar    1  ZINC000175255939   -0.1900
     27 C27        -8.3229   -0.1629   52.6792 C.ar    1  ZINC000175255939   -0.0500
     28 N28        -5.7324    2.4655   52.6357 N.2     1  ZINC000175255939   -0.3600
     29 O29        -4.9221    2.7149   51.7739 O.3     1  ZINC000175255939    0.1200
     30 C30        -1.2764    0.5650   48.4340 C.3     1  ZINC000175255939   -0.0900
     31 H31         3.2023   -0.0243   45.9389 H       1  ZINC000175255939    0.1000
     32 H32         1.6732    0.7620   45.4783 H       1  ZINC000175255939    0.0600
     33 H33         2.2584    0.8678   47.1560 H       1  ZINC000175255939    0.0600
     34 H34        -0.5800    0.8533   45.0710 H       1  ZINC000175255939    0.0800
     35 H35        -2.0181    0.1452   45.8448 H       1  ZINC000175255939    0.0700
     36 H36        -1.0167    3.0032   46.2268 H       1  ZINC000175255939    0.0700
     37 H37        -2.4121    2.5161   45.2350 H       1  ZINC000175255939    0.0800
     38 H38        -3.1404    3.2995   47.4721 H       1  ZINC000175255939    0.0700
     39 H39        -3.5133    1.5738   47.2469 H       1  ZINC000175255939    0.0800
     40 H40        -4.4575    1.5248   48.8390 H       1  ZINC000175255939    0.4300
     41 H41        -6.0466   -0.1055   50.6982 H       1  ZINC000175255939    0.1800
     42 H42        -6.7136    1.6256   55.0699 H       1  ZINC000175255939    0.1400
     43 H43        -8.4486    0.5773   56.4616 H       1  ZINC000175255939    0.1400
     44 H44       -11.3191   -2.2906   54.2883 H       1  ZINC000175255939    0.1900
     45 H45       -10.0134   -1.4203   53.0208 H       1  ZINC000175255939    0.1400
     46 H46        -8.2864   -0.3708   51.6201 H       1  ZINC000175255939    0.1400
     47 H47        -2.0779   -0.1652   48.3232 H       1  ZINC000175255939    0.0900
     48 H48        -0.6825    0.3217   49.3150 H       1  ZINC000175255939    0.0800
@<TRIPOS>BOND
     1     1     2    1
     2     1    31    1
     3     1    32    1
     4     1    33    1
     5     2     3    1
     6     3     4    2
     7     3     5    1
     8     5     6    1
     9     5    30    1
    10     5     7    1
    11     7     8    1
    12     7    34    1
    13     7    35    1
    14     8     9    1
    15     8    36    1
    16     8    37    1
    17     9    10    1
    18     9    38    1
    19     9    39    1
    20    10    11    1
    21    10    12    1
    22    10    30    1
    23    12    13    2
    24    12    14   am
    25    14    15    1
    26    14    40    1
    27    15    29    1
    28    15    16    2
    29    16    17    1
    30    16    41    1
    31    17    18    1
    32    17    28    2
    33    18    27   ar
    34    18    19   ar
    35    19    20   ar
    36    19    42    1
    37    20    21   ar
    38    20    43    1
    39    21    22    1
    40    21    26   ar
    41    22    23    1
    42    23    24    1
    43    23    25    1
    44    23    44    1
    45    26    27   ar
    46    26    45    1
    47    27    46    1
    48    28    29    1
    49    30    47    1
    50    30    48    1
@<TRIPOS>SUBSTRUCTURE
     1 ZINC000175255939        1 TEMP              0 ****  ****    0 ROOT


##########                                Name:    ZINC000533037883
##########                DOCK_Rotatable_Bonds:                   7
##########                         Heavy_Atoms:                  27
##########                    Molecular_Weight:             368.479
##########                DOCK_Rotatable_Bonds:                   7
##########                       Formal_Charge:          0.00999947
##########                     HBond_Acceptors:                   6
##########                        HBond_Donors:                   1
##########                         Heavy_Atoms:                  27
##########                          Grid_Score:          -32.856068
##########                     Grid_vdw_energy:          -31.168707
##########                      Grid_es_energy:           -1.687362
##########           Internal_energy_repulsive:           13.853231

@<TRIPOS>MOLECULE
ZINC000533037883
 55 58 1 0 0
SMALL
USER_CHARGES


@<TRIPOS>ATOM
      1 O1         -8.0605    0.0908   50.6137 O.2     1  ZINC000533037883   -0.5900
      2 C2         -7.8982    0.4973   51.7482 C.2     1  ZINC000533037883    0.7100
      3 N3         -6.6820    0.9225   52.1441 N.am    1  ZINC000533037883   -0.7500
      4 C4         -5.5543    0.8891   51.2094 C.3     1  ZINC000533037883    0.1400
      5 C5         -4.5285    1.9512   51.6100 C.3     1  ZINC000533037883   -0.0500
      6 C6         -3.3334    1.8650   50.6960 C.2     1  ZINC000533037883   -0.2300
      7 C7         -3.3597    1.5606   49.3778 C.2     1  ZINC000533037883    0.0600
      8 N8         -2.0863    1.5886   48.9235 N.pl3   1  ZINC000533037883   -0.3200
      9 C9         -1.6734    1.3312   47.6088 C.ar    1  ZINC000533037883    0.1600
     10 C10        -0.3217    1.3312   47.2917 C.ar    1  ZINC000533037883   -0.1400
     11 C11         0.0820    1.0773   45.9955 C.ar    1  ZINC000533037883   -0.0900
     12 C12        -0.8584    0.8238   45.0139 C.ar    1  ZINC000533037883   -0.1300
     13 C13        -2.2054    0.8230   45.3268 C.ar    1  ZINC000533037883   -0.0900
     14 C14        -2.6149    1.0701   46.6225 C.ar    1  ZINC000533037883   -0.1200
     15 N15        -1.2528    1.9210   49.9993 N.2     1  ZINC000533037883   -0.2900
     16 C16        -2.0013    2.0915   51.0593 C.2     1  ZINC000533037883    0.0700
     17 N17        -8.9356    0.5280   52.6079 N.am    1  ZINC000533037883   -0.6300
     18 C18       -10.2672    0.0679   52.1910 C.3     1  ZINC000533037883    0.1100
     19 C19       -10.7598   -0.9850   53.1888 C.3     1  ZINC000533037883   -0.1400
     20 C20       -10.7101   -0.4037   54.6037 C.3     1  ZINC000533037883   -0.1100
     21 C21        -9.2661   -0.0412   54.9577 C.3     1  ZINC000533037883   -0.0900
     22 H22        -8.6398   -0.9305   54.8867 H       1  ZINC000533037883    0.0800
     23 C23        -9.2127    0.5084   56.3846 C.3     1  ZINC000533037883   -0.1200
     24 H24        -9.9321    1.3169   56.5141 H       1  ZINC000533037883    0.0900
     25 C25        -9.4578   -0.6214   57.4215 C.3     1  ZINC000533037883   -0.1500
     26 C26        -8.6786   -0.0731   58.6434 C.3     1  ZINC000533037883    0.0500
     27 O27        -7.5226    0.5761   58.0906 O.3     1  ZINC000533037883   -0.3900
     28 C28        -7.7860    0.9807   56.7383 C.3     1  ZINC000533037883    0.0500
     29 C29        -8.7552    1.0167   53.9818 C.3     1  ZINC000533037883    0.1300
     30 H30        -6.5534    1.2504   53.0478 H       1  ZINC000533037883    0.4000
     31 H31        -5.0879   -0.0956   51.2379 H       1  ZINC000533037883    0.0700
     32 H32        -5.9128    1.0924   50.2003 H       1  ZINC000533037883    0.0700
     33 H33        -4.9785    2.9405   51.5273 H       1  ZINC000533037883    0.0800
     34 H34        -4.2120    1.7808   52.6389 H       1  ZINC000533037883    0.0800
     35 H35        -4.2396    1.3353   48.7935 H       1  ZINC000533037883    0.1800
     36 H36         0.4132    1.5299   48.0576 H       1  ZINC000533037883    0.1300
     37 H37         1.1334    1.0772   45.7482 H       1  ZINC000533037883    0.1300
     38 H38        -0.5403    0.6262   44.0010 H       1  ZINC000533037883    0.1300
     39 H39        -2.9376    0.6247   44.5581 H       1  ZINC000533037883    0.1300
     40 H40        -3.6671    1.0692   46.8662 H       1  ZINC000533037883    0.1400
     41 H41        -1.6505    2.3556   52.0460 H       1  ZINC000533037883    0.1900
     42 H42       -10.9579    0.9110   52.1787 H       1  ZINC000533037883    0.0700
     43 H43       -10.2067   -0.3721   51.1956 H       1  ZINC000533037883    0.0800
     44 H44       -11.7850   -1.2646   52.9462 H       1  ZINC000533037883    0.0800
     45 H45       -10.1195   -1.8654   53.1345 H       1  ZINC000533037883    0.0700
     46 H46       -11.3311    0.4908   54.6508 H       1  ZINC000533037883    0.0700
     47 H47       -11.0834   -1.1425   55.3130 H       1  ZINC000533037883    0.0700
     48 H48       -10.5193   -0.7244   57.6466 H       1  ZINC000533037883    0.0800
     49 H49        -9.0372   -1.5668   57.0793 H       1  ZINC000533037883    0.0800
     50 H50        -9.2897    0.6443   59.1911 H       1  ZINC000533037883    0.0600
     51 H51        -8.3764   -0.8911   59.2975 H       1  ZINC000533037883    0.0900
     52 H52        -7.0671    0.5129   56.0657 H       1  ZINC000533037883    0.0700
     53 H53        -7.7185    2.0655   56.6572 H       1  ZINC000533037883    0.0700
     54 H54        -7.6978    1.2053   54.1679 H       1  ZINC000533037883    0.1000
     55 H55        -9.3216    1.9387   54.1128 H       1  ZINC000533037883    0.0700
@<TRIPOS>BOND
     1     1     2    2
     2     2     3   am
     3     2    17   am
     4     3     4    1
     5     3    30    1
     6     4     5    1
     7     4    31    1
     8     4    32    1
     9     5     6    1
    10     5    33    1
    11     5    34    1
    12     6    16    1
    13     6     7    2
    14     7     8    1
    15     7    35    1
    16     8     9    1
    17     8    15    1
    18     9    14   ar
    19     9    10   ar
    20    10    11   ar
    21    10    36    1
    22    11    12   ar
    23    11    37    1
    24    12    13   ar
    25    12    38    1
    26    13    14   ar
    27    13    39    1
    28    14    40    1
    29    15    16    2
    30    16    41    1
    31    17    29    1
    32    17    18    1
    33    18    19    1
    34    18    42    1
    35    18    43    1
    36    19    20    1
    37    19    44    1
    38    19    45    1
    39    20    21    1
    40    20    46    1
    41    20    47    1
    42    21    22    1
    43    21    23    1
    44    21    29    1
    45    23    24    1
    46    23    28    1
    47    23    25    1
    48    25    26    1
    49    25    48    1
    50    25    49    1
    51    26    27    1
    52    26    50    1
    53    26    51    1
    54    27    28    1
    55    28    52    1
    56    28    53    1
    57    29    54    1
    58    29    55    1
@<TRIPOS>SUBSTRUCTURE
     1 ZINC000533037883        1 TEMP              0 ****  ****    0 ROOT


##########                                Name:    ZINC000444811358
##########                DOCK_Rotatable_Bonds:                  11
##########                         Heavy_Atoms:                  27
##########                    Molecular_Weight:             374.455
##########                DOCK_Rotatable_Bonds:                  11
##########                       Formal_Charge:          0.00999966
##########                     HBond_Acceptors:                   6
##########                        HBond_Donors:                   2
##########                         Heavy_Atoms:                  27
##########                          Grid_Score:          -32.828983
##########                     Grid_vdw_energy:          -30.395641
##########                      Grid_es_energy:           -2.433342
##########           Internal_energy_repulsive:           29.032131

@<TRIPOS>MOLECULE
ZINC000444811358
 54 55 1 0 0
SMALL
USER_CHARGES


@<TRIPOS>ATOM
      1 C1         -2.4735    4.2579   54.1936 C.3     1  ZINC000444811358   -0.1100
      2 C2         -2.6397    3.5227   52.8886 C.ar    1  ZINC000444811358   -0.1300
      3 C3         -1.5997    2.7624   52.3878 C.ar    1  ZINC000444811358   -0.0700
      4 C4         -1.7484    2.0875   51.1916 C.ar    1  ZINC000444811358   -0.1500
      5 C5         -2.9445    2.1722   50.4912 C.ar    1  ZINC000444811358    0.1700
      6 N6         -3.0971    1.4889   49.2798 N.am    1  ZINC000444811358   -0.6800
      7 C7         -2.4199    1.8946   48.1873 C.2     1  ZINC000444811358    0.5200
      8 O8         -1.6782    2.8519   48.2544 O.2     1  ZINC000444811358   -0.5000
      9 C9         -2.5842    1.1587   46.8826 C.3     1  ZINC000444811358    0.0200
     10 N10        -1.2612    0.8191   46.3420 N.3     1  ZINC000444811358   -0.5000
     11 C11        -1.0393   -0.6328   46.3666 C.3     1  ZINC000444811358    0.0200
     12 C12        -0.3619   -1.0230   47.6819 C.3     1  ZINC000444811358    0.1100
     13 H13        -0.6044   -0.2866   48.4479 H       1  ZINC000444811358    0.1200
     14 O14        -0.8270   -2.3098   48.0938 O.3     1  ZINC000444811358   -0.5400
     15 C15         1.1542   -1.0692   47.4806 C.3     1  ZINC000444811358    0.0300
     16 O16         1.6738    0.2620   47.4681 O.3     1  ZINC000444811358   -0.3000
     17 C17         1.9548    0.8258   48.6722 C.ar    1  ZINC000444811358    0.1300
     18 C18         2.5845    2.0606   48.7312 C.ar    1  ZINC000444811358   -0.2100
     19 C19         2.8686    2.6320   49.9564 C.ar    1  ZINC000444811358   -0.0800
     20 C20         2.5263    1.9740   51.1233 C.ar    1  ZINC000444811358   -0.1600
     21 C21         1.8991    0.7431   51.0673 C.ar    1  ZINC000444811358   -0.0800
     22 C22         1.6073    0.1703   49.8445 C.ar    1  ZINC000444811358   -0.1500
     23 C23        -1.0941    1.3542   44.9841 C.3     1  ZINC000444811358    0.0700
     24 C24         0.3932    1.3800   44.6256 C.3     1  ZINC000444811358   -0.1400
     25 C25        -1.8431    0.4649   43.9897 C.3     1  ZINC000444811358   -0.1900
     26 C26        -3.9889    2.9359   50.9953 C.ar    1  ZINC000444811358   -0.1500
     27 C27        -3.8366    3.6054   52.1960 C.ar    1  ZINC000444811358    0.1200
     28 F28        -4.8516    4.3489   52.6880 F       1  ZINC000444811358   -0.1300
     29 H29        -2.7841    3.6134   55.0158 H       1  ZINC000444811358    0.0700
     30 H30        -1.4273    4.5347   54.3240 H       1  ZINC000444811358    0.0700
     31 H31        -3.0889    5.1575   54.1847 H       1  ZINC000444811358    0.0700
     32 H32        -0.6693    2.6962   52.9322 H       1  ZINC000444811358    0.1400
     33 H33        -0.9347    1.4944   50.8013 H       1  ZINC000444811358    0.1300
     34 H34        -3.6902    0.7233   49.2261 H       1  ZINC000444811358    0.4100
     35 H35        -3.1537    0.2445   47.0503 H       1  ZINC000444811358    0.1300
     36 H36        -3.1152    1.7925   46.1723 H       1  ZINC000444811358    0.0700
     37 H37        -1.9962   -1.1481   46.2839 H       1  ZINC000444811358    0.0500
     38 H38        -0.4002   -0.9170   45.5305 H       1  ZINC000444811358    0.1000
     39 H39        -0.6519   -2.5124   49.0230 H       1  ZINC000444811358    0.3700
     40 H40         1.6120   -1.6303   48.2952 H       1  ZINC000444811358    0.0600
     41 H41         1.3801   -1.5563   46.5320 H       1  ZINC000444811358    0.0700
     42 H42         2.8526    2.5747   47.8199 H       1  ZINC000444811358    0.1300
     43 H43         3.3587    3.5932   50.0029 H       1  ZINC000444811358    0.1200
     44 H44         2.7496    2.4222   52.0802 H       1  ZINC000444811358    0.1200
     45 H45         1.6331    0.2310   51.9802 H       1  ZINC000444811358    0.1300
     46 H46         1.1174   -0.7912   49.8012 H       1  ZINC000444811358    0.1300
     47 H47        -1.4959    2.3665   44.9406 H       1  ZINC000444811358    0.0900
     48 H48         0.7638    0.3586   44.5392 H       1  ZINC000444811358    0.0500
     49 H49         0.5289    1.8973   43.6759 H       1  ZINC000444811358    0.0600
     50 H50         0.9461    1.9024   45.4062 H       1  ZINC000444811358    0.0700
     51 H51        -2.9026    0.4465   44.2452 H       1  ZINC000444811358    0.0500
     52 H52        -1.7191    0.8620   42.9823 H       1  ZINC000444811358    0.0700
     53 H53        -1.4413   -0.5473   44.0333 H       1  ZINC000444811358    0.0600
     54 H54        -4.9202    3.0039   50.4526 H       1  ZINC000444811358    0.1500
@<TRIPOS>BOND
     1     1     2    1
     2     1    29    1
     3     1    30    1
     4     1    31    1
     5     2    27   ar
     6     2     3   ar
     7     3     4   ar
     8     3    32    1
     9     4     5   ar
    10     4    33    1
    11     5     6    1
    12     5    26   ar
    13     6     7   am
    14     6    34    1
    15     7     8    2
    16     7     9    1
    17     9    10    1
    18     9    35    1
    19     9    36    1
    20    10    11    1
    21    10    23    1
    22    11    12    1
    23    11    37    1
    24    11    38    1
    25    12    13    1
    26    12    14    1
    27    12    15    1
    28    14    39    1
    29    15    16    1
    30    15    40    1
    31    15    41    1
    32    16    17    1
    33    17    22   ar
    34    17    18   ar
    35    18    19   ar
    36    18    42    1
    37    19    20   ar
    38    19    43    1
    39    20    21   ar
    40    20    44    1
    41    21    22   ar
    42    21    45    1
    43    22    46    1
    44    23    24    1
    45    23    25    1
    46    23    47    1
    47    24    48    1
    48    24    49    1
    49    24    50    1
    50    25    51    1
    51    25    52    1
    52    25    53    1
    53    26    27   ar
    54    26    54    1
    55    27    28    1
@<TRIPOS>SUBSTRUCTURE
     1 ZINC000444811358        1 TEMP              0 ****  ****    0 ROOT


##########                                Name:    ZINC001004075025
##########                DOCK_Rotatable_Bonds:                   8
##########                         Heavy_Atoms:                  25
##########                    Molecular_Weight:              349.43
##########                DOCK_Rotatable_Bonds:                   8
##########                       Formal_Charge:         -0.00999999
##########                     HBond_Acceptors:                   7
##########                        HBond_Donors:                   1
##########                         Heavy_Atoms:                  25
##########                          Grid_Score:          -32.781994
##########                     Grid_vdw_energy:          -31.666422
##########                      Grid_es_energy:           -1.115571
##########           Internal_energy_repulsive:            8.851194

@<TRIPOS>MOLECULE
ZINC001004075025
 52 54 1 0 0
SMALL
USER_CHARGES


@<TRIPOS>ATOM
      1 C1        -11.6859   -3.1009   56.9460 C.3     1  ZINC001004075025   -0.1500
      2 C2        -10.3568   -2.5025   56.4807 C.3     1  ZINC001004075025   -0.1200
      3 C3        -10.4476   -2.1531   54.9940 C.3     1  ZINC001004075025    0.0800
      4 H4        -10.5574   -3.0596   54.3989 H       1  ZINC001004075025    0.0700
      5 C5        -11.6382   -1.1947   54.7386 C.3     1  ZINC001004075025   -0.1500
      6 C6        -11.1765   -0.4927   53.4324 C.3     1  ZINC001004075025   -0.1400
      7 C7         -9.6458   -0.4227   53.6214 C.3     1  ZINC001004075025    0.0700
      8 H8         -9.3634    0.5637   53.9892 H       1  ZINC001004075025    0.1100
      9 C9         -8.9558   -0.6962   52.3100 C.2     1  ZINC001004075025    0.5300
     10 O10        -9.4231   -1.5042   51.5357 O.2     1  ZINC001004075025   -0.5200
     11 N11        -7.8190   -0.0429   51.9976 N.am    1  ZINC001004075025   -0.6500
     12 C12        -6.8875   -0.0234   50.8596 C.3     1  ZINC001004075025    0.1100
     13 C13        -5.7850    0.4019   51.8393 C.3     1  ZINC001004075025   -0.1400
     14 C14        -4.8350    1.4681   51.2900 C.3     1  ZINC001004075025    0.1300
     15 N15        -4.1726    0.9586   50.0867 N.am    1  ZINC001004075025   -0.7200
     16 C16        -3.3635    1.7642   49.3705 C.2     1  ZINC001004075025    0.6000
     17 O17        -3.1822    2.9135   49.7239 O.2     1  ZINC001004075025   -0.5300
     18 C18        -2.6984    1.2521   48.1588 C.2     1  ZINC001004075025   -0.2700
     19 C19        -1.4706    0.6466   48.0471 C.2     1  ZINC001004075025    0.0700
     20 C20        -0.4991    0.3613   49.1633 C.3     1  ZINC001004075025   -0.0300
     21 C21         0.1396   -1.0118   48.9448 C.3     1  ZINC001004075025   -0.1500
     22 C22         0.5912    1.4345   49.1774 C.3     1  ZINC001004075025   -0.1500
     23 O23        -1.3089    0.3614   46.7531 O.3     1  ZINC001004075025    0.1000
     24 N24        -2.2454    0.6999   46.0719 N.2     1  ZINC001004075025   -0.3500
     25 C25        -3.1886    1.2574   46.7719 C.2     1  ZINC001004075025    0.0200
     26 C26        -6.9678    0.9688   52.6415 C.3     1  ZINC001004075025    0.1100
     27 O27        -9.2811   -1.4238   54.5809 O.3     1  ZINC001004075025   -0.3400
     28 H28       -11.6212   -3.3499   58.0053 H       1  ZINC001004075025    0.0600
     29 H29       -12.4847   -2.3757   56.7913 H       1  ZINC001004075025    0.0500
     30 H30       -11.8984   -4.0034   56.3730 H       1  ZINC001004075025    0.0600
     31 H31       -10.1443   -1.6000   57.0538 H       1  ZINC001004075025    0.0800
     32 H32        -9.5579   -3.2277   56.6354 H       1  ZINC001004075025    0.0700
     33 H33       -12.5626   -1.7501   54.5804 H       1  ZINC001004075025    0.0900
     34 H34       -11.7470   -0.4779   55.5524 H       1  ZINC001004075025    0.0900
     35 H35       -11.4325   -1.0919   52.5586 H       1  ZINC001004075025    0.0800
     36 H36       -11.6041    0.5071   53.3573 H       1  ZINC001004075025    0.0900
     37 H37        -6.7207   -1.0060   50.4183 H       1  ZINC001004075025    0.0900
     38 H38        -7.1255    0.7380   50.1168 H       1  ZINC001004075025    0.0900
     39 H39        -5.2685   -0.4294   52.3192 H       1  ZINC001004075025    0.1100
     40 H40        -5.4011    2.3655   51.0407 H       1  ZINC001004075025    0.0800
     41 H41        -4.0849    1.7092   52.0431 H       1  ZINC001004075025    0.0800
     42 H42        -4.3162    0.0413   49.8055 H       1  ZINC001004075025    0.4000
     43 H43        -1.0282    0.3683   50.1162 H       1  ZINC001004075025    0.1300
     44 H44         0.6688   -1.0189   47.9920 H       1  ZINC001004075025    0.0600
     45 H45         0.8423   -1.2182   49.7522 H       1  ZINC001004075025    0.0700
     46 H46        -0.6371   -1.7764   48.9348 H       1  ZINC001004075025    0.0600
     47 H47         1.1204    1.4274   48.2245 H       1  ZINC001004075025    0.0600
     48 H48         0.1361    2.4127   49.3330 H       1  ZINC001004075025    0.0600
     49 H49         1.2938    1.2281   49.9847 H       1  ZINC001004075025    0.0700
     50 H50        -4.1288    1.6475   46.4110 H       1  ZINC001004075025    0.2000
     51 H51        -7.2247    1.9930   52.3711 H       1  ZINC001004075025    0.0900
     52 H52        -6.8691    0.8286   53.7180 H       1  ZINC001004075025    0.0800
@<TRIPOS>BOND
     1     1     2    1
     2     1    28    1
     3     1    29    1
     4     1    30    1
     5     2     3    1
     6     2    31    1
     7     2    32    1
     8     3     4    1
     9     3    27    1
    10     3     5    1
    11     5     6    1
    12     5    33    1
    13     5    34    1
    14     6     7    1
    15     6    35    1
    16     6    36    1
    17     7     8    1
    18     7     9    1
    19     7    27    1
    20     9    10    2
    21     9    11   am
    22    11    26    1
    23    11    12    1
    24    12    13    1
    25    12    37    1
    26    12    38    1
    27    13    14    1
    28    13    26    1
    29    13    39    1
    30    14    15    1
    31    14    40    1
    32    14    41    1
    33    15    16   am
    34    15    42    1
    35    16    17    2
    36    16    18    1
    37    18    25    1
    38    18    19    2
    39    19    20    1
    40    19    23    1
    41    20    21    1
    42    20    22    1
    43    20    43    1
    44    21    44    1
    45    21    45    1
    46    21    46    1
    47    22    47    1
    48    22    48    1
    49    22    49    1
    50    23    24    1
    51    24    25    2
    52    25    50    1
    53    26    51    1
    54    26    52    1
@<TRIPOS>SUBSTRUCTURE
     1 ZINC001004075025        1 TEMP              0 ****  ****    0 ROOT


##########                                Name:    ZINC000373715094
##########                DOCK_Rotatable_Bonds:                   6
##########                         Heavy_Atoms:                  27
##########                    Molecular_Weight:             362.431
##########                DOCK_Rotatable_Bonds:                   6
##########                       Formal_Charge:           0.0299999
##########                     HBond_Acceptors:                   6
##########                        HBond_Donors:                   2
##########                         Heavy_Atoms:                  27
##########                          Grid_Score:          -32.781334
##########                     Grid_vdw_energy:          -32.072952
##########                      Grid_es_energy:           -0.708380
##########           Internal_energy_repulsive:            9.819334

@<TRIPOS>MOLECULE
ZINC000373715094
 49 52 1 0 0
SMALL
USER_CHARGES


@<TRIPOS>ATOM
      1 C1         -6.4390   -1.0783   52.2959 C.3     1  ZINC000373715094    0.0900
      2 N2         -7.7044   -0.3898   52.5626 N.am    1  ZINC000373715094   -0.6100
      3 C3         -8.5113    0.1099   51.6108 C.2     1  ZINC000373715094    0.5200
      4 O4         -8.2929    0.0606   50.4188 O.2     1  ZINC000373715094   -0.5200
      5 C5         -9.7317    0.7423   52.2426 C.3     1  ZINC000373715094   -0.1600
      6 C6         -9.7445    0.1841   53.6845 C.3     1  ZINC000373715094   -0.1000
      7 H7        -10.0794    0.9416   54.3931 H       1  ZINC000373715094    0.1100
      8 C8        -10.6137   -1.0715   53.7781 C.3     1  ZINC000373715094    0.1300
      9 N9        -10.8288   -1.4127   55.1864 N.am    1  ZINC000373715094   -0.7300
     10 C10       -10.4033   -2.5986   55.6651 C.2     1  ZINC000373715094    0.5200
     11 O11        -9.8412   -3.3827   54.9302 O.2     1  ZINC000373715094   -0.5200
     12 C12       -10.6263   -2.9503   57.1135 C.3     1  ZINC000373715094   -0.0600
     13 C13       -12.0663   -3.3442   57.3187 C.2     1  ZINC000373715094    0.1200
     14 N14       -12.7765   -4.0964   56.5276 N.2     1  ZINC000373715094   -0.2300
     15 N15       -14.0698   -4.2455   57.0391 N.pl3   1  ZINC000373715094   -0.5100
     16 C16       -14.1701   -3.5471   58.2140 C.ar    1  ZINC000373715094    0.1300
     17 C17       -15.1975   -3.3459   59.1320 C.ar    1  ZINC000373715094   -0.1400
     18 C18       -14.9792   -2.5751   60.2388 C.ar    1  ZINC000373715094   -0.0700
     19 C19       -13.7414   -1.9856   60.4627 C.ar    1  ZINC000373715094   -0.1600
     20 C20       -12.7158   -2.1652   59.5801 C.ar    1  ZINC000373715094   -0.0400
     21 C21       -12.9123   -2.9558   58.4427 C.ar    1  ZINC000373715094   -0.1600
     22 C22        -8.2568   -0.1624   53.9032 C.3     1  ZINC000373715094    0.1800
     23 H23        -8.1645   -1.0621   54.5116 H       1  ZINC000373715094    0.1000
     24 C24        -7.5449    0.9892   54.5649 C.ar    1  ZINC000373715094   -0.1000
     25 C25        -7.1766    2.0940   53.8202 C.ar    1  ZINC000373715094   -0.1000
     26 C26        -6.5235    3.1503   54.4273 C.ar    1  ZINC000373715094   -0.1200
     27 C27        -6.2391    3.1020   55.7792 C.ar    1  ZINC000373715094   -0.1100
     28 C28        -6.6083    1.9977   56.5242 C.ar    1  ZINC000373715094   -0.1200
     29 C29        -7.2651    0.9432   55.9180 C.ar    1  ZINC000373715094   -0.1100
     30 H30        -6.6244   -2.1457   52.1760 H       1  ZINC000373715094    0.0600
     31 H31        -5.9951   -0.6819   51.3826 H       1  ZINC000373715094    0.0800
     32 H32        -5.7561   -0.9196   53.1304 H       1  ZINC000373715094    0.0700
     33 H33        -9.6358    1.8279   52.2546 H       1  ZINC000373715094    0.1100
     34 H34       -10.6348    0.4440   51.7101 H       1  ZINC000373715094    0.1100
     35 H35       -11.5746   -0.8847   53.2986 H       1  ZINC000373715094    0.0700
     36 H36       -10.1120   -1.8989   53.2763 H       1  ZINC000373715094    0.0800
     37 H37       -11.2773   -0.7850   55.7745 H       1  ZINC000373715094    0.4000
     38 H38        -9.9790   -3.7828   57.3890 H       1  ZINC000373715094    0.1200
     39 H39       -10.3933   -2.0871   57.7369 H       1  ZINC000373715094    0.1200
     40 H40       -14.7817   -4.7604   56.6280 H       1  ZINC000373715094    0.4400
     41 H41       -16.1648   -3.7980   58.9695 H       1  ZINC000373715094    0.1300
     42 H42       -15.7791   -2.4219   60.9482 H       1  ZINC000373715094    0.1300
     43 H43       -13.5892   -1.3791   61.3433 H       1  ZINC000373715094    0.1300
     44 H44       -11.7563   -1.7036   59.7613 H       1  ZINC000373715094    0.1300
     45 H45        -7.3987    2.1316   52.7640 H       1  ZINC000373715094    0.1200
     46 H46        -6.2351    4.0132   53.8452 H       1  ZINC000373715094    0.1200
     47 H47        -5.7283    3.9271   56.2534 H       1  ZINC000373715094    0.1200
     48 H48        -6.3858    1.9599   57.5803 H       1  ZINC000373715094    0.1300
     49 H49        -7.5535    0.0804   56.5000 H       1  ZINC000373715094    0.1300
@<TRIPOS>BOND
     1     1     2    1
     2     1    30    1
     3     1    31    1
     4     1    32    1
     5     2    22    1
     6     2     3   am
     7     3     4    2
     8     3     5    1
     9     5     6    1
    10     5    33    1
    11     5    34    1
    12     6     7    1
    13     6     8    1
    14     6    22    1
    15     8     9    1
    16     8    35    1
    17     8    36    1
    18     9    10   am
    19     9    37    1
    20    10    11    2
    21    10    12    1
    22    12    13    1
    23    12    38    1
    24    12    39    1
    25    13    21    1
    26    13    14    2
    27    14    15    1
    28    15    16    1
    29    15    40    1
    30    16    21   ar
    31    16    17   ar
    32    17    18   ar
    33    17    41    1
    34    18    19   ar
    35    18    42    1
    36    19    20   ar
    37    19    43    1
    38    20    21   ar
    39    20    44    1
    40    22    23    1
    41    22    24    1
    42    24    29   ar
    43    24    25   ar
    44    25    26   ar
    45    25    45    1
    46    26    27   ar
    47    26    46    1
    48    27    28   ar
    49    27    47    1
    50    28    29   ar
    51    28    48    1
    52    29    49    1
@<TRIPOS>SUBSTRUCTURE
     1 ZINC000373715094        1 TEMP              0 ****  ****    0 ROOT


##########                                Name:    ZINC000225856071
##########                DOCK_Rotatable_Bonds:                   6
##########                         Heavy_Atoms:                  29
##########                    Molecular_Weight:             409.549
##########                DOCK_Rotatable_Bonds:                   6
##########                       Formal_Charge:         -0.00999989
##########                     HBond_Acceptors:                   5
##########                        HBond_Donors:                   1
##########                         Heavy_Atoms:                  29
##########                          Grid_Score:          -32.769806
##########                     Grid_vdw_energy:          -32.867081
##########                      Grid_es_energy:            0.097276
##########           Internal_energy_repulsive:           44.414562

@<TRIPOS>MOLECULE
ZINC000225856071
 56 58 1 0 0
SMALL
USER_CHARGES


@<TRIPOS>ATOM
      1 C1          2.5309    0.7798   42.2120 C.3     1  ZINC000225856071    0.0200
      2 O2          2.3272    1.5364   43.4070 O.3     1  ZINC000225856071   -0.3100
      3 C3          1.6343    0.9331   44.4085 C.ar    1  ZINC000225856071    0.1900
      4 C4          0.2606    0.7726   44.3040 C.ar    1  ZINC000225856071   -0.2300
      5 C5         -0.4415    0.1585   45.3234 C.ar    1  ZINC000225856071    0.0700
      6 C6         -1.9341   -0.0163   45.2105 C.3     1  ZINC000225856071   -0.1800
      7 C7          0.2241   -0.2962   46.4465 C.ar    1  ZINC000225856071   -0.7100
      8 S8         -0.6740   -1.0794   47.7444 S.o2    1  ZINC000225856071    2.7000
      9 O9         -1.5508   -2.0083   47.1219 O.2     1  ZINC000225856071   -0.9600
     10 O10         0.2830   -1.4519   48.7265 O.2     1  ZINC000225856071   -0.9500
     11 N11        -1.6346    0.0753   48.4419 N.am    1  ZINC000225856071   -1.1100
     12 C12        -1.0287    1.2629   49.0493 C.3     1  ZINC000225856071    0.2400
     13 H13        -0.0408    1.0101   49.4343 H       1  ZINC000225856071    0.1100
     14 C14        -1.8991    1.7485   50.1796 C.ar    1  ZINC000225856071   -0.1000
     15 C15        -1.3211    2.2292   51.3397 C.ar    1  ZINC000225856071   -0.1000
     16 C16        -2.1195    2.6748   52.3764 C.ar    1  ZINC000225856071   -0.1200
     17 C17        -3.4959    2.6400   52.2530 C.ar    1  ZINC000225856071   -0.1100
     18 C18        -4.0739    2.1602   51.0925 C.ar    1  ZINC000225856071   -0.1100
     19 C19        -3.2755    1.7187   50.0541 C.ar    1  ZINC000225856071   -0.1000
     20 C20        -0.9009    2.3482   48.0116 C.ar    1  ZINC000225856071   -0.0900
     21 C21        -1.8099    2.4216   46.9730 C.ar    1  ZINC000225856071   -0.1000
     22 C22        -1.6927    3.4174   46.0210 C.ar    1  ZINC000225856071   -0.1200
     23 C23        -0.6668    4.3395   46.1082 C.ar    1  ZINC000225856071   -0.0800
     24 C24        -0.5388    5.4245   45.0701 C.3     1  ZINC000225856071   -0.1200
     25 C25         0.2416    4.2668   47.1478 C.ar    1  ZINC000225856071   -0.1200
     26 C26         0.1222    3.2738   48.1016 C.ar    1  ZINC000225856071   -0.0600
     27 C27         1.1123    3.1945   49.2350 C.3     1  ZINC000225856071   -0.1300
     28 C28         1.5937   -0.1377   46.5528 C.ar    1  ZINC000225856071    0.0200
     29 C29         2.3008    0.4717   45.5346 C.ar    1  ZINC000225856071   -0.1400
     30 C30         3.7934    0.6436   45.6510 C.3     1  ZINC000225856071   -0.1100
     31 H31         1.5656    0.5138   41.7813 H       1  ZINC000225856071    0.0600
     32 H32         3.0961    1.3767   41.4960 H       1  ZINC000225856071    0.1000
     33 H33         3.0866   -0.1280   42.4470 H       1  ZINC000225856071    0.0600
     34 H34        -0.2599    1.1275   43.4268 H       1  ZINC000225856071    0.1400
     35 H35        -2.1531   -0.9743   44.7389 H       1  ZINC000225856071    0.0900
     36 H36        -2.3791    0.0093   46.2051 H       1  ZINC000225856071    0.1000
     37 H37        -2.3497    0.7897   44.6057 H       1  ZINC000225856071    0.0800
     38 H38        -2.5982   -0.0345   48.4482 H       1  ZINC000225856071    0.4200
     39 H39        -0.2458    2.2564   51.4360 H       1  ZINC000225856071    0.1200
     40 H40        -1.6679    3.0497   53.2831 H       1  ZINC000225856071    0.1200
     41 H41        -4.1196    2.9874   53.0633 H       1  ZINC000225856071    0.1200
     42 H42        -5.1492    2.1327   50.9963 H       1  ZINC000225856071    0.1200
     43 H43        -3.7270    1.3438   49.1475 H       1  ZINC000225856071    0.1200
     44 H44        -2.6115    1.7011   46.9049 H       1  ZINC000225856071    0.1200
     45 H45        -2.4025    3.4744   45.2090 H       1  ZINC000225856071    0.1200
     46 H46        -1.1071    6.2991   45.3868 H       1  ZINC000225856071    0.0700
     47 H47         0.5108    5.6954   44.9552 H       1  ZINC000225856071    0.0700
     48 H48        -0.9275    5.0639   44.1178 H       1  ZINC000225856071    0.0700
     49 H49         1.0429    4.9876   47.2161 H       1  ZINC000225856071    0.1200
     50 H50         0.7529    3.7905   50.0738 H       1  ZINC000225856071    0.0800
     51 H51         1.2238    2.1564   49.5482 H       1  ZINC000225856071    0.0700
     52 H52         2.0765    3.5791   48.9026 H       1  ZINC000225856071    0.0700
     53 H53         2.1116   -0.4940   47.4311 H       1  ZINC000225856071    0.1500
     54 H54         4.2935   -0.2285   45.2296 H       1  ZINC000225856071    0.0700
     55 H55         4.0998    1.5365   45.1062 H       1  ZINC000225856071    0.0700
     56 H56         4.0665    0.7470   46.7011 H       1  ZINC000225856071    0.0700
@<TRIPOS>BOND
     1     1     2    1
     2     1    31    1
     3     1    32    1
     4     1    33    1
     5     2     3    1
     6     3    29   ar
     7     3     4   ar
     8     4     5   ar
     9     4    34    1
    10     5     6    1
    11     5     7   ar
    12     6    35    1
    13     6    36    1
    14     6    37    1
    15     7     8    1
    16     7    28   ar
    17     8     9    2
    18     8    10    2
    19     8    11   am
    20    11    12    1
    21    11    38    1
    22    12    13    1
    23    12    14    1
    24    12    20    1
    25    14    19   ar
    26    14    15   ar
    27    15    16   ar
    28    15    39    1
    29    16    17   ar
    30    16    40    1
    31    17    18   ar
    32    17    41    1
    33    18    19   ar
    34    18    42    1
    35    19    43    1
    36    20    26   ar
    37    20    21   ar
    38    21    22   ar
    39    21    44    1
    40    22    23   ar
    41    22    45    1
    42    23    24    1
    43    23    25   ar
    44    24    46    1
    45    24    47    1
    46    24    48    1
    47    25    26   ar
    48    25    49    1
    49    26    27    1
    50    27    50    1
    51    27    51    1
    52    27    52    1
    53    28    29   ar
    54    28    53    1
    55    29    30    1
    56    30    54    1
    57    30    55    1
    58    30    56    1
@<TRIPOS>SUBSTRUCTURE
     1 ZINC000225856071        1 TEMP              0 ****  ****    0 ROOT


##########                                Name:    ZINC000432058199
##########                DOCK_Rotatable_Bonds:                   5
##########                         Heavy_Atoms:                  30
##########                    Molecular_Weight:             406.441
##########                DOCK_Rotatable_Bonds:                   5
##########                       Formal_Charge:        -4.02331e-07
##########                     HBond_Acceptors:                   8
##########                        HBond_Donors:                   1
##########                         Heavy_Atoms:                  30
##########                          Grid_Score:          -32.750340
##########                     Grid_vdw_energy:          -32.468536
##########                      Grid_es_energy:           -0.281803
##########           Internal_energy_repulsive:           16.519960

@<TRIPOS>MOLECULE
ZINC000432058199
 52 55 1 0 0
SMALL
USER_CHARGES


@<TRIPOS>ATOM
      1 C1         -6.4602   -0.6980   51.2518 C.3     1  ZINC000432058199    0.0300
      2 O2         -7.2328   -1.2616   52.3137 O.3     1  ZINC000432058199   -0.3100
      3 C3         -8.4905   -0.7765   52.4863 C.ar    1  ZINC000432058199    0.1300
      4 C4         -8.9586    0.2442   51.6707 C.ar    1  ZINC000432058199   -0.1900
      5 C5        -10.2373    0.7405   51.8428 C.ar    1  ZINC000432058199   -0.0800
      6 C6        -11.0556    0.2237   52.8270 C.ar    1  ZINC000432058199   -0.1100
      7 C7        -10.5934   -0.8016   53.6500 C.ar    1  ZINC000432058199    0.0100
      8 C8        -11.4715   -1.3594   54.7087 C.2     1  ZINC000432058199    0.2100
      9 N9        -12.6700   -0.9417   55.0229 N.2     1  ZINC000432058199   -0.3700
     10 O10       -13.1192   -1.6088   55.9308 O.3     1  ZINC000432058199    0.1200
     11 C11       -12.2331   -2.5406   56.2961 C.2     1  ZINC000432058199    0.1600
     12 C12       -12.4110   -3.5667   57.3853 C.3     1  ZINC000432058199    0.2500
     13 H13       -12.0488   -4.5337   57.0361 H       1  ZINC000432058199    0.1500
     14 C14       -13.8940   -3.6770   57.7449 C.3     1  ZINC000432058199   -0.1700
     15 N15       -11.6505   -3.1590   58.5693 N.am    1  ZINC000432058199   -0.5800
     16 C16       -10.5782   -3.8098   59.0347 C.2     1  ZINC000432058199    0.7000
     17 O17       -10.1212   -4.8124   58.5217 O.2     1  ZINC000432058199   -0.5100
     18 N18       -10.0624   -3.2305   60.1337 N.am    1  ZINC000432058199   -0.7200
     19 C19       -10.9014   -2.0547   60.4235 C.3     1  ZINC000432058199    0.1400
     20 H20       -11.3728   -2.1515   61.4014 H       1  ZINC000432058199    0.1400
     21 C21       -10.0845   -0.7902   60.3532 C.ar    1  ZINC000432058199   -0.1000
     22 C22        -9.9441    0.0051   61.4752 C.ar    1  ZINC000432058199   -0.1000
     23 C23        -9.1949    1.1651   61.4107 C.ar    1  ZINC000432058199   -0.0800
     24 C24        -9.0421    2.0323   62.6336 C.3     1  ZINC000432058199   -0.1200
     25 C25        -8.5855    1.5293   60.2246 C.ar    1  ZINC000432058199   -0.1100
     26 C26        -8.7257    0.7337   59.1028 C.ar    1  ZINC000432058199   -0.0800
     27 C27        -8.0617    1.1311   57.8095 C.3     1  ZINC000432058199   -0.1200
     28 C28        -9.4713   -0.4283   59.1684 C.ar    1  ZINC000432058199   -0.1000
     29 C29       -11.9413   -2.0787   59.3208 C.2     1  ZINC000432058199    0.5300
     30 O30       -12.8492   -1.2929   59.1531 O.2     1  ZINC000432058199   -0.4500
     31 N31       -11.1840   -2.3984   55.5250 N.2     1  ZINC000432058199   -0.4500
     32 C32        -9.3073   -1.3049   53.4728 C.ar    1  ZINC000432058199   -0.1200
     33 H33        -5.4794   -1.1729   51.2243 H       1  ZINC000432058199    0.1000
     34 H34        -6.9709   -0.8640   50.3032 H       1  ZINC000432058199    0.0600
     35 H35        -6.3409    0.3726   51.4178 H       1  ZINC000432058199    0.0600
     36 H36        -8.3219    0.6520   50.8995 H       1  ZINC000432058199    0.1400
     37 H37       -10.5969    1.5352   51.2059 H       1  ZINC000432058199    0.1400
     38 H38       -12.0539    0.6141   52.9595 H       1  ZINC000432058199    0.1400
     39 H39       -14.2561   -2.7101   58.0941 H       1  ZINC000432058199    0.0900
     40 H40       -14.4599   -3.9804   56.8640 H       1  ZINC000432058199    0.0900
     41 H41       -14.0225   -4.4193   58.5327 H       1  ZINC000432058199    0.0900
     42 H42        -9.2892   -3.5290   60.6377 H       1  ZINC000432058199    0.4500
     43 H43       -10.4198   -0.2797   62.4020 H       1  ZINC000432058199    0.1200
     44 H44        -8.1653    1.7139   63.1976 H       1  ZINC000432058199    0.0700
     45 H45        -8.9204    3.0717   62.3291 H       1  ZINC000432058199    0.0700
     46 H46        -9.9300    1.9385   63.2589 H       1  ZINC000432058199    0.0700
     47 H47        -8.0002    2.4355   60.1743 H       1  ZINC000432058199    0.1300
     48 H48        -7.0618    0.6994   57.7669 H       1  ZINC000432058199    0.0700
     49 H49        -8.6522    0.7638   56.9702 H       1  ZINC000432058199    0.0700
     50 H50        -7.9910    2.2175   57.7563 H       1  ZINC000432058199    0.0700
     51 H51        -9.5808   -1.0499   58.2920 H       1  ZINC000432058199    0.1300
     52 H52        -8.9446   -2.0994   54.1080 H       1  ZINC000432058199    0.1400
@<TRIPOS>BOND
     1     1     2    1
     2     1    33    1
     3     1    34    1
     4     1    35    1
     5     2     3    1
     6     3    32   ar
     7     3     4   ar
     8     4     5   ar
     9     4    36    1
    10     5     6   ar
    11     5    37    1
    12     6     7   ar
    13     6    38    1
    14     7     8    1
    15     7    32   ar
    16     8    31    1
    17     8     9    2
    18     9    10    1
    19    10    11    1
    20    11    12    1
    21    11    31    2
    22    12    13    1
    23    12    14    1
    24    12    15    1
    25    14    39    1
    26    14    40    1
    27    14    41    1
    28    15    29   am
    29    15    16   am
    30    16    17    2
    31    16    18   am
    32    18    19    1
    33    18    42    1
    34    19    20    1
    35    19    21    1
    36    19    29    1
    37    21    28   ar
    38    21    22   ar
    39    22    23   ar
    40    22    43    1
    41    23    24    1
    42    23    25   ar
    43    24    44    1
    44    24    45    1
    45    24    46    1
    46    25    26   ar
    47    25    47    1
    48    26    27    1
    49    26    28   ar
    50    27    48    1
    51    27    49    1
    52    27    50    1
    53    28    51    1
    54    29    30    2
    55    32    52    1
@<TRIPOS>SUBSTRUCTURE
     1 ZINC000432058199        1 TEMP              0 ****  ****    0 ROOT


##########                                Name:    ZINC000981048968
##########                DOCK_Rotatable_Bonds:                   7
##########                         Heavy_Atoms:                  25
##########                    Molecular_Weight:             344.414
##########                DOCK_Rotatable_Bonds:                   7
##########                       Formal_Charge:                0.02
##########                     HBond_Acceptors:                   7
##########                        HBond_Donors:                   2
##########                         Heavy_Atoms:                  25
##########                          Grid_Score:          -32.732105
##########                     Grid_vdw_energy:          -32.563286
##########                      Grid_es_energy:           -0.168820
##########           Internal_energy_repulsive:            4.270102

@<TRIPOS>MOLECULE
ZINC000981048968
 49 52 1 0 0
SMALL
USER_CHARGES


@<TRIPOS>ATOM
      1 C1         -1.7715    2.9608   49.9804 C.3     1  ZINC000981048968   -0.0800
      2 C2         -2.9454    2.5477   50.8304 C.2     1  ZINC000981048968   -0.0100
      3 C3         -3.7870    1.5390   50.5571 C.2     1  ZINC000981048968   -0.1600
      4 C4         -4.7605    1.5153   51.6586 C.2     1  ZINC000981048968   -0.2300
      5 C5         -5.8936    0.5879   51.8263 C.2     1  ZINC000981048968    0.5900
      6 O6         -5.9035   -0.4737   51.2331 O.2     1  ZINC000981048968   -0.5300
      7 N7         -6.9189    0.9164   52.6371 N.am    1  ZINC000981048968   -0.7300
      8 C8         -8.0461   -0.0047   52.8025 C.3     1  ZINC000981048968    0.1500
      9 H9         -7.7619   -0.9945   52.4453 H       1  ZINC000981048968    0.0900
     10 C10        -9.2429    0.5042   51.9964 C.3     1  ZINC000981048968   -0.1300
     11 C11       -10.4201   -0.4576   52.1691 C.3     1  ZINC000981048968   -0.1200
     12 C12       -10.7995   -0.5390   53.6491 C.3     1  ZINC000981048968   -0.1100
     13 C13        -9.6027   -1.0479   54.4551 C.3     1  ZINC000981048968    0.1000
     14 H14        -9.3185   -2.0377   54.0979 H       1  ZINC000981048968    0.0500
     15 N15        -9.9669   -1.1260   55.8761 N.3     1  ZINC000981048968   -0.6800
     16 C16       -10.1908   -2.5186   56.2864 C.3     1  ZINC000981048968    0.1500
     17 C17       -10.2093   -2.6022   57.7909 C.2     1  ZINC000981048968    0.1800
     18 N18       -10.8121   -3.5062   58.5036 N.2     1  ZINC000981048968   -0.3800
     19 O19       -10.6361   -3.2956   59.6852 O.3     1  ZINC000981048968    0.0800
     20 C20        -9.8812   -2.2042   59.8432 C.2     1  ZINC000981048968    0.2100
     21 C21        -9.4339   -1.6040   61.1512 C.3     1  ZINC000981048968   -0.0800
     22 C22        -7.9892   -1.1086   61.2436 C.3     1  ZINC000981048968   -0.1600
     23 C23        -9.1402   -0.1027   61.1757 C.3     1  ZINC000981048968   -0.1500
     24 N24        -9.6001   -1.7580   58.6426 N.2     1  ZINC000981048968   -0.4600
     25 C25        -8.4255   -0.0860   54.2824 C.3     1  ZINC000981048968   -0.1300
     26 C26        -4.3952    2.5305   52.4934 C.2     1  ZINC000981048968    0.0200
     27 O27        -3.3125    3.1263   51.9845 O.3     1  ZINC000981048968   -0.1700
     28 H28        -1.2640    3.8049   50.4474 H       1  ZINC000981048968    0.0800
     29 H29        -1.0775    2.1253   49.8886 H       1  ZINC000981048968    0.0900
     30 H30        -2.1238    3.2510   48.9906 H       1  ZINC000981048968    0.0900
     31 H31        -3.7559    0.8795   49.7025 H       1  ZINC000981048968    0.1600
     32 H32        -6.9105    1.7626   53.1113 H       1  ZINC000981048968    0.4000
     33 H33        -9.5271    1.4940   52.3536 H       1  ZINC000981048968    0.0700
     34 H34        -8.9727    0.5621   50.9421 H       1  ZINC000981048968    0.0700
     35 H35       -11.2727   -0.0952   51.5949 H       1  ZINC000981048968    0.0700
     36 H36       -10.1359   -1.4476   51.8120 H       1  ZINC000981048968    0.0600
     37 H37       -11.0836    0.4508   54.0063 H       1  ZINC000981048968    0.0700
     38 H38       -11.6381   -1.2243   53.7721 H       1  ZINC000981048968    0.0700
     39 H39        -9.2655   -0.6871   56.4538 H       1  ZINC000981048968    0.3500
     40 H40       -11.1460   -2.8645   55.8914 H       1  ZINC000981048968    0.1100
     41 H41        -9.3884   -3.1454   55.8976 H       1  ZINC000981048968    0.0600
     42 H42        -9.8729   -2.0457   62.0457 H       1  ZINC000981048968    0.1500
     43 H43        -7.4776   -1.2243   62.1991 H       1  ZINC000981048968    0.1200
     44 H44        -7.3624   -1.2167   60.3584 H       1  ZINC000981048968    0.1100
     45 H45        -9.2705    0.4509   60.2459 H       1  ZINC000981048968    0.1000
     46 H46        -9.3856    0.4433   62.0866 H       1  ZINC000981048968    0.1200
     47 H47        -7.5728   -0.4485   54.8567 H       1  ZINC000981048968    0.0700
     48 H48        -8.7096    0.9038   54.6396 H       1  ZINC000981048968    0.0800
     49 H49        -4.8940    2.8039   53.4115 H       1  ZINC000981048968    0.2100
@<TRIPOS>BOND
     1     1     2    1
     2     1    28    1
     3     1    29    1
     4     1    30    1
     5     2    27    1
     6     2     3    2
     7     3     4    1
     8     3    31    1
     9     4     5    1
    10     4    26    2
    11     5     6    2
    12     5     7   am
    13     7     8    1
    14     7    32    1
    15     8     9    1
    16     8    25    1
    17     8    10    1
    18    10    11    1
    19    10    33    1
    20    10    34    1
    21    11    12    1
    22    11    35    1
    23    11    36    1
    24    12    13    1
    25    12    37    1
    26    12    38    1
    27    13    14    1
    28    13    15    1
    29    13    25    1
    30    15    16    1
    31    15    39    1
    32    16    17    1
    33    16    40    1
    34    16    41    1
    35    17    24    1
    36    17    18    2
    37    18    19    1
    38    19    20    1
    39    20    21    1
    40    20    24    2
    41    21    23    1
    42    21    22    1
    43    21    42    1
    44    22    23    1
    45    22    43    1
    46    22    44    1
    47    23    45    1
    48    23    46    1
    49    25    47    1
    50    25    48    1
    51    26    27    1
    52    26    49    1
@<TRIPOS>SUBSTRUCTURE
     1 ZINC000981048968        1 TEMP              0 ****  ****    0 ROOT


##########                                Name:    ZINC001119787528
##########                DOCK_Rotatable_Bonds:                   6
##########                         Heavy_Atoms:                  27
##########                    Molecular_Weight:             362.434
##########                DOCK_Rotatable_Bonds:                   6
##########                       Formal_Charge:          -0.0199998
##########                     HBond_Acceptors:                   7
##########                        HBond_Donors:                   1
##########                         Heavy_Atoms:                  27
##########                          Grid_Score:          -32.726952
##########                     Grid_vdw_energy:          -33.214466
##########                      Grid_es_energy:            0.487515
##########           Internal_energy_repulsive:            9.350093

@<TRIPOS>MOLECULE
ZINC001119787528
 49 52 1 0 0
SMALL
USER_CHARGES


@<TRIPOS>ATOM
      1 C1        -14.5197   -2.7277   61.5417 C.3     1  ZINC001119787528   -0.1700
      2 C2        -14.7499   -2.0113   60.2096 C.3     1  ZINC001119787528    0.1000
      3 N3        -14.0960   -2.7599   59.1332 N.pl3   1  ZINC001119787528   -0.4500
      4 C4        -14.5611   -3.8813   58.5360 C.2     1  ZINC001119787528    0.1800
      5 N5        -13.7031   -4.2592   57.6244 N.2     1  ZINC001119787528   -0.4800
      6 C6        -12.6775   -3.4051   57.6092 C.2     1  ZINC001119787528   -0.0200
      7 C7        -12.9080   -2.4551   58.5408 C.2     1  ZINC001119787528   -0.0100
      8 C8        -11.9906   -1.2971   58.8343 C.3     1  ZINC001119787528   -0.0600
      9 C9        -10.6023   -1.6082   58.2601 C.3     1  ZINC001119787528    0.1400
     10 N10       -10.7538   -2.1502   56.9016 N.am    1  ZINC001119787528   -0.6200
     11 C11       -10.2706   -1.4834   55.8346 C.2     1  ZINC001119787528    0.7200
     12 O12        -9.7012   -0.4205   55.9890 O.2     1  ZINC001119787528   -0.5600
     13 N13       -10.4185   -1.9951   54.5965 N.am    1  ZINC001119787528   -0.6600
     14 C14        -9.9201   -1.3074   53.4962 C.ar    1  ZINC001119787528    0.4200
     15 C15       -10.7750   -0.5768   52.6705 C.ar    1  ZINC001119787528   -0.2500
     16 C16       -10.2312    0.0902   51.5892 C.ar    1  ZINC001119787528    0.1600
     17 N17        -8.9261    0.0149   51.3733 N.ar    1  ZINC001119787528   -0.5300
     18 C18        -8.1452   -0.6841   52.1724 C.ar    1  ZINC001119787528    0.3500
     19 C19        -6.6665   -0.7401   51.8868 C.3     1  ZINC001119787528   -0.0100
     20 C20        -6.0791    0.6425   52.0077 C.ar    1  ZINC001119787528   -0.0800
     21 C21        -6.4941    1.4833   53.0234 C.ar    1  ZINC001119787528   -0.1000
     22 C22        -5.9553    2.7515   53.1343 C.ar    1  ZINC001119787528   -0.1200
     23 C23        -5.0012    3.1787   52.2299 C.ar    1  ZINC001119787528   -0.1200
     24 C24        -4.5856    2.3374   51.2147 C.ar    1  ZINC001119787528   -0.1200
     25 C25        -5.1212    1.0677   51.1064 C.ar    1  ZINC001119787528   -0.1000
     26 N26        -8.6207   -1.3309   53.2170 N.ar    1  ZINC001119787528   -0.5500
     27 C27       -11.4489   -3.4379   56.7314 C.3     1  ZINC001119787528    0.2000
     28 H28       -15.0061   -2.1707   62.3426 H       1  ZINC001119787528    0.0800
     29 H29       -14.9390   -3.7325   61.4912 H       1  ZINC001119787528    0.0600
     30 H30       -13.4498   -2.7901   61.7405 H       1  ZINC001119787528    0.0600
     31 H31       -15.8198   -1.9489   60.0107 H       1  ZINC001119787528    0.0900
     32 H32       -14.3304   -1.0065   60.2602 H       1  ZINC001119787528    0.1000
     33 H33       -15.4881   -4.3822   58.7734 H       1  ZINC001119787528    0.2100
     34 H34       -12.3838   -0.3928   58.3698 H       1  ZINC001119787528    0.0800
     35 H35       -11.9164   -1.1539   59.9122 H       1  ZINC001119787528    0.0900
     36 H36       -10.0098   -0.6941   58.2238 H       1  ZINC001119787528    0.1100
     37 H37       -10.1029   -2.3427   58.8919 H       1  ZINC001119787528    0.0800
     38 H38       -10.8728   -2.8432   54.4735 H       1  ZINC001119787528    0.4200
     39 H39       -11.8354   -0.5339   52.8712 H       1  ZINC001119787528    0.1800
     40 H40       -10.8624    0.6655   50.9280 H       1  ZINC001119787528    0.1700
     41 H41        -6.1830   -1.4042   52.6032 H       1  ZINC001119787528    0.1000
     42 H42        -6.5055   -1.1162   50.8766 H       1  ZINC001119787528    0.1000
     43 H43        -7.2396    1.1496   53.7300 H       1  ZINC001119787528    0.1300
     44 H44        -6.2801    3.4088   53.9274 H       1  ZINC001119787528    0.1200
     45 H45        -4.5808    4.1697   52.3161 H       1  ZINC001119787528    0.1200
     46 H46        -3.8404    2.6713   50.5078 H       1  ZINC001119787528    0.1200
     47 H47        -4.7964    0.4106   50.3133 H       1  ZINC001119787528    0.1200
     48 H48       -10.7981   -4.2547   57.0436 H       1  ZINC001119787528    0.0900
     49 H49       -11.7361   -3.5694   55.6883 H       1  ZINC001119787528    0.0900
@<TRIPOS>BOND
     1     1     2    1
     2     1    28    1
     3     1    29    1
     4     1    30    1
     5     2     3    1
     6     2    31    1
     7     2    32    1
     8     3     7    1
     9     3     4    1
    10     4     5    2
    11     4    33    1
    12     5     6    1
    13     6    27    1
    14     6     7    2
    15     7     8    1
    16     8     9    1
    17     8    34    1
    18     8    35    1
    19     9    10    1
    20     9    36    1
    21     9    37    1
    22    10    11   am
    23    10    27    1
    24    11    12    2
    25    11    13   am
    26    13    14    1
    27    13    38    1
    28    14    26   ar
    29    14    15   ar
    30    15    16   ar
    31    15    39    1
    32    16    17   ar
    33    16    40    1
    34    17    18   ar
    35    18    19    1
    36    18    26   ar
    37    19    20    1
    38    19    41    1
    39    19    42    1
    40    20    25   ar
    41    20    21   ar
    42    21    22   ar
    43    21    43    1
    44    22    23   ar
    45    22    44    1
    46    23    24   ar
    47    23    45    1
    48    24    25   ar
    49    24    46    1
    50    25    47    1
    51    27    48    1
    52    27    49    1
@<TRIPOS>SUBSTRUCTURE
     1 ZINC001119787528        1 TEMP              0 ****  ****    0 ROOT


##########                                Name:    ZINC000770850676
##########                DOCK_Rotatable_Bonds:                  13
##########                         Heavy_Atoms:                  30
##########                    Molecular_Weight:             412.486
##########                DOCK_Rotatable_Bonds:                  13
##########                       Formal_Charge:          -0.0299994
##########                     HBond_Acceptors:                   7
##########                        HBond_Donors:                   3
##########                         Heavy_Atoms:                  30
##########                          Grid_Score:          -32.726387
##########                     Grid_vdw_energy:          -31.795952
##########                      Grid_es_energy:           -0.930435
##########           Internal_energy_repulsive:           16.559658

@<TRIPOS>MOLECULE
ZINC000770850676
 58 60 1 0 0
SMALL
USER_CHARGES


@<TRIPOS>ATOM
      1 O1        -10.1602   -2.5778   57.5619 O.2     1  ZINC000770850676   -0.5300
      2 C2        -11.3372   -2.2854   57.5689 C.2     1  ZINC000770850676    0.5100
      3 N3        -11.7499   -1.1380   56.9947 N.am    1  ZINC000770850676   -0.7000
      4 C4        -10.7761   -0.2412   56.3674 C.3     1  ZINC000770850676    0.1600
      5 H5         -9.7986   -0.3877   56.8270 H       1  ZINC000770850676    0.1000
      6 C6        -11.2193    1.2100   56.5630 C.3     1  ZINC000770850676    0.0600
      7 O7        -11.9002    1.3358   57.8130 O.3     1  ZINC000770850676   -0.5700
      8 C8        -10.6877   -0.5503   54.8716 C.3     1  ZINC000770850676   -0.1500
      9 C9         -9.4332   -1.3815   54.5958 C.3     1  ZINC000770850676    0.1500
     10 H10        -8.9982   -1.7071   55.5407 H       1  ZINC000770850676    0.1100
     11 O11        -9.7820   -2.5250   53.8129 O.3     1  ZINC000770850676   -0.5400
     12 C12        -8.4311   -0.5444   53.8434 C.ar    1  ZINC000770850676   -0.1200
     13 C13        -8.0208    0.6713   54.3581 C.ar    1  ZINC000770850676   -0.1100
     14 C14        -7.1017    1.4392   53.6679 C.ar    1  ZINC000770850676   -0.1200
     15 C15        -6.5925    0.9914   52.4634 C.ar    1  ZINC000770850676   -0.1200
     16 C16        -7.0021   -0.2246   51.9491 C.ar    1  ZINC000770850676   -0.1200
     17 C17        -7.9180   -0.9945   52.6413 C.ar    1  ZINC000770850676   -0.1100
     18 C18       -12.3391   -3.2079   58.2142 C.3     1  ZINC000770850676    0.1400
     19 H19       -11.8343   -4.0969   58.5924 H       1  ZINC000770850676    0.1000
     20 C20       -13.4168   -3.6134   57.1867 C.3     1  ZINC000770850676   -0.1200
     21 C21       -14.7174   -3.6231   58.0328 C.3     1  ZINC000770850676   -0.1300
     22 C22       -14.4641   -2.4446   59.0058 C.3     1  ZINC000770850676    0.1000
     23 N23       -13.0212   -2.5133   59.3159 N.am    1  ZINC000770850676   -0.5900
     24 C24       -12.4312   -2.0197   60.4226 C.2     1  ZINC000770850676    0.6700
     25 O25       -13.0996   -1.4615   61.2700 O.2     1  ZINC000770850676   -0.5600
     26 O26       -11.1011   -2.1452   60.5892 O.3     1  ZINC000770850676   -0.3600
     27 C27       -10.3041   -0.9382   60.4617 C.3     1  ZINC000770850676    0.1300
     28 C28        -9.6389   -0.6340   61.7793 C.ar    1  ZINC000770850676   -0.1000
     29 C29       -10.3102    0.0998   62.7394 C.ar    1  ZINC000770850676   -0.0900
     30 C30        -9.7000    0.3788   63.9480 C.ar    1  ZINC000770850676   -0.1200
     31 C31        -8.4187   -0.0764   64.1967 C.ar    1  ZINC000770850676   -0.1100
     32 C32        -7.7477   -0.8110   63.2370 C.ar    1  ZINC000770850676   -0.1200
     33 C33        -8.3595   -1.0937   62.0301 C.ar    1  ZINC000770850676   -0.0900
     34 H34       -12.6918   -0.9060   56.9968 H       1  ZINC000770850676    0.4000
     35 H35       -10.3448    1.8608   56.5584 H       1  ZINC000770850676    0.0500
     36 H36       -11.8903    1.4974   55.7533 H       1  ZINC000770850676    0.0500
     37 H37       -11.4323    0.9343   58.5580 H       1  ZINC000770850676    0.3800
     38 H38       -11.5702   -1.1112   54.5637 H       1  ZINC000770850676    0.0800
     39 H39       -10.6361    0.3826   54.3102 H       1  ZINC000770850676    0.0900
     40 H40        -9.0880   -3.1968   53.7669 H       1  ZINC000770850676    0.3700
     41 H41        -8.4186    1.0211   55.2993 H       1  ZINC000770850676    0.1200
     42 H42        -6.7816    2.3893   54.0697 H       1  ZINC000770850676    0.1200
     43 H43        -5.8750    1.5917   51.9237 H       1  ZINC000770850676    0.1200
     44 H44        -6.6046   -0.5743   51.0078 H       1  ZINC000770850676    0.1200
     45 H45        -8.2381   -1.9446   52.2396 H       1  ZINC000770850676    0.1200
     46 H46       -13.4830   -2.8767   56.3861 H       1  ZINC000770850676    0.0800
     47 H47       -13.2116   -4.6052   56.7836 H       1  ZINC000770850676    0.1000
     48 H48       -15.5908   -3.4337   57.4088 H       1  ZINC000770850676    0.0900
     49 H49       -14.8233   -4.5623   58.5758 H       1  ZINC000770850676    0.0800
     50 H50       -14.7053   -1.4968   58.5247 H       1  ZINC000770850676    0.0700
     51 H51       -15.0524   -2.5701   59.9148 H       1  ZINC000770850676    0.0900
     52 H52        -9.5426   -1.0848   59.6956 H       1  ZINC000770850676    0.0800
     53 H53       -10.9482   -0.1055   60.1791 H       1  ZINC000770850676    0.0800
     54 H54       -11.3113    0.4554   62.5451 H       1  ZINC000770850676    0.1200
     55 H55       -10.2243    0.9527   64.6978 H       1  ZINC000770850676    0.1300
     56 H56        -7.9417    0.1422   65.1408 H       1  ZINC000770850676    0.1300
     57 H57        -6.7465   -1.1662   63.4312 H       1  ZINC000770850676    0.1300
     58 H58        -7.8353   -1.6675   61.2803 H       1  ZINC000770850676    0.1200
@<TRIPOS>BOND
     1     1     2    2
     2     2     3   am
     3     2    18    1
     4     3     4    1
     5     3    34    1
     6     4     5    1
     7     4     6    1
     8     4     8    1
     9     6     7    1
    10     6    35    1
    11     6    36    1
    12     7    37    1
    13     8     9    1
    14     8    38    1
    15     8    39    1
    16     9    10    1
    17     9    11    1
    18     9    12    1
    19    11    40    1
    20    12    17   ar
    21    12    13   ar
    22    13    14   ar
    23    13    41    1
    24    14    15   ar
    25    14    42    1
    26    15    16   ar
    27    15    43    1
    28    16    17   ar
    29    16    44    1
    30    17    45    1
    31    18    19    1
    32    18    23    1
    33    18    20    1
    34    20    21    1
    35    20    46    1
    36    20    47    1
    37    21    22    1
    38    21    48    1
    39    21    49    1
    40    22    23    1
    41    22    50    1
    42    22    51    1
    43    23    24   am
    44    24    25    2
    45    24    26    1
    46    26    27    1
    47    27    28    1
    48    27    52    1
    49    27    53    1
    50    28    33   ar
    51    28    29   ar
    52    29    30   ar
    53    29    54    1
    54    30    31   ar
    55    30    55    1
    56    31    32   ar
    57    31    56    1
    58    32    33   ar
    59    32    57    1
    60    33    58    1
@<TRIPOS>SUBSTRUCTURE
     1 ZINC000770850676        1 TEMP              0 ****  ****    0 ROOT


##########                                Name:    ZINC001058772245
##########                DOCK_Rotatable_Bonds:                  11
##########                         Heavy_Atoms:                  22
##########                    Molecular_Weight:             335.375
##########                DOCK_Rotatable_Bonds:                  11
##########                       Formal_Charge:          0.00999964
##########                     HBond_Acceptors:                   9
##########                        HBond_Donors:                   2
##########                         Heavy_Atoms:                  22
##########                          Grid_Score:          -32.695705
##########                     Grid_vdw_energy:          -31.241142
##########                      Grid_es_energy:           -1.454563
##########           Internal_energy_repulsive:           75.317131

@<TRIPOS>MOLECULE
ZINC001058772245
 41 41 1 0 0
SMALL
USER_CHARGES


@<TRIPOS>ATOM
      1 C1          1.5283   -0.3000   48.0763 C.3     1  ZINC001058772245   -0.1700
      2 C2          0.0401    0.0524   48.1192 C.3     1  ZINC001058772245   -0.1400
      3 C3         -0.3676    0.3693   49.5594 C.3     1  ZINC001058772245   -0.1500
      4 C4         -0.2167    1.2551   47.2482 C.2     1  ZINC001058772245    0.5300
      5 O5          0.7037    1.7917   46.6688 O.2     1  ZINC001058772245   -0.5200
      6 N6         -1.4692    1.7343   47.1131 N.am    1  ZINC001058772245   -0.5900
      7 C7         -1.7187    2.9035   46.2664 C.3     1  ZINC001058772245    0.0800
      8 C8         -1.6527    2.4908   44.7946 C.3     1  ZINC001058772245    0.0400
      9 O9         -2.5206    1.3775   44.5727 O.3     1  ZINC001058772245   -0.5700
     10 C10        -2.5810    1.0861   47.8130 C.3     1  ZINC001058772245    0.1100
     11 C11        -3.0477    1.9779   48.9652 C.3     1  ZINC001058772245    0.1000
     12 N12        -4.1102    1.2976   49.7099 N.am    1  ZINC001058772245   -0.7100
     13 C13        -4.4319    1.7088   50.9523 C.2     1  ZINC001058772245    0.6000
     14 O14        -3.8411    2.6457   51.4550 O.2     1  ZINC001058772245   -0.5300
     15 C15        -5.4988    1.0238   51.7016 C.2     1  ZINC001058772245    0.0000
     16 C16        -6.2933    1.6518   52.5974 C.2     1  ZINC001058772245   -0.2200
     17 S17        -7.3972    0.5188   53.2453 S.3     1  ZINC001058772245    0.2300
     18 C18        -6.7349   -0.7272   52.2835 C.2     1  ZINC001058772245    0.0000
     19 N19        -5.7756   -0.2746   51.5555 N.2     1  ZINC001058772245   -0.4400
     20 C20        -0.7798   -1.1331   47.6063 C.3     1  ZINC001058772245    0.2900
     21 F21        -1.3124   -0.8232   46.3502 F       1  ZINC001058772245   -0.1900
     22 F22         0.0445   -2.2584   47.4985 F       1  ZINC001058772245   -0.2000
     23 H23         1.6733   -1.3116   48.4554 H       1  ZINC001058772245    0.0800
     24 H24         1.8857   -0.2427   47.0481 H       1  ZINC001058772245    0.0700
     25 H25         2.0863    0.4033   48.6945 H       1  ZINC001058772245    0.0900
     26 H26         0.0090    1.3543   49.8353 H       1  ZINC001058772245    0.0800
     27 H27        -1.4546    0.3604   49.6396 H       1  ZINC001058772245    0.0700
     28 H28         0.0525   -0.3809   50.2294 H       1  ZINC001058772245    0.0900
     29 H29        -2.7069    3.3073   46.4867 H       1  ZINC001058772245    0.0900
     30 H30        -0.9632    3.6637   46.4649 H       1  ZINC001058772245    0.1200
     31 H31        -1.9661    3.3262   44.1686 H       1  ZINC001058772245    0.0600
     32 H32        -0.6303    2.2105   44.5414 H       1  ZINC001058772245    0.0700
     33 H33        -3.4560    1.5721   44.7220 H       1  ZINC001058772245    0.3800
     34 H34        -3.4058    0.9291   47.1180 H       1  ZINC001058772245    0.1000
     35 H35        -2.2508    0.1252   48.2080 H       1  ZINC001058772245    0.0900
     36 H36        -2.2089    2.1794   49.6315 H       1  ZINC001058772245    0.0700
     37 H37        -3.4285    2.9179   48.5659 H       1  ZINC001058772245    0.0700
     38 H38        -4.5822    0.5512   49.3086 H       1  ZINC001058772245    0.4100
     39 H39        -6.2393    2.6979   52.8605 H       1  ZINC001058772245    0.1900
     40 H40        -7.0761   -1.7518   52.2838 H       1  ZINC001058772245    0.2100
     41 H41        -1.5912   -1.3425   48.3033 H       1  ZINC001058772245    0.1200
@<TRIPOS>BOND
     1     1     2    1
     2     1    23    1
     3     1    24    1
     4     1    25    1
     5     2     3    1
     6     2     4    1
     7     2    20    1
     8     3    26    1
     9     3    27    1
    10     3    28    1
    11     4     5    2
    12     4     6   am
    13     6     7    1
    14     6    10    1
    15     7     8    1
    16     7    29    1
    17     7    30    1
    18     8     9    1
    19     8    31    1
    20     8    32    1
    21     9    33    1
    22    10    11    1
    23    10    34    1
    24    10    35    1
    25    11    12    1
    26    11    36    1
    27    11    37    1
    28    12    13   am
    29    12    38    1
    30    13    14    2
    31    13    15    1
    32    15    19    1
    33    15    16    2
    34    16    17    1
    35    16    39    1
    36    17    18    1
    37    18    19    2
    38    18    40    1
    39    20    21    1
    40    20    22    1
    41    20    41    1
@<TRIPOS>SUBSTRUCTURE
     1 ZINC001058772245        1 TEMP              0 ****  ****    0 ROOT


##########                                Name:    ZINC000848949366
##########                DOCK_Rotatable_Bonds:                   8
##########                         Heavy_Atoms:                  25
##########                    Molecular_Weight:             368.773
##########                DOCK_Rotatable_Bonds:                   8
##########                       Formal_Charge:          0.00999947
##########                     HBond_Acceptors:                   9
##########                        HBond_Donors:                   3
##########                         Heavy_Atoms:                  25
##########                          Grid_Score:          -32.694450
##########                     Grid_vdw_energy:          -32.375843
##########                      Grid_es_energy:           -0.318608
##########           Internal_energy_repulsive:           17.491030

@<TRIPOS>MOLECULE
ZINC000848949366
 42 43 1 0 0
SMALL
USER_CHARGES


@<TRIPOS>ATOM
      1 C1          2.2138    0.6545   50.8936 C.3     1  ZINC000848949366   -0.1500
      2 C2          1.3747    1.8609   50.4675 C.3     1  ZINC000848949366    0.0600
      3 O3          0.8475    1.6359   49.1585 O.3     1  ZINC000848949366   -0.3500
      4 C4         -0.3460    1.0112   49.0779 C.2     1  ZINC000848949366    0.5400
      5 O5         -0.9426    0.7055   50.0934 O.2     1  ZINC000848949366   -0.4800
      6 C6         -0.9036    0.7119   47.8128 C.2     1  ZINC000848949366   -0.2300
      7 C7         -1.9625    1.4010   47.3358 C.2     1  ZINC000848949366    0.2000
      8 C8         -2.5607    2.5082   48.1649 C.3     1  ZINC000848949366    0.1000
      9 O9         -3.4275    1.9381   49.1807 O.3     1  ZINC000848949366   -0.3500
     10 C10        -3.9177    2.7817   50.1102 C.2     1  ZINC000848949366    0.5100
     11 O11        -3.6403    3.9639   50.0646 O.2     1  ZINC000848949366   -0.4800
     12 C12        -4.7902    2.2706   51.1819 C.ar    1  ZINC000848949366   -0.1600
     13 C13        -5.1901    0.9313   51.1838 C.ar    1  ZINC000848949366   -0.0300
     14 C14        -6.0059    0.4594   52.1883 C.ar    1  ZINC000848949366   -0.1300
     15 C15        -6.4332    1.3074   53.1989 C.ar    1  ZINC000848949366    0.0200
     16 Cl16       -7.4615    0.6995   54.4585 Cl      1  ZINC000848949366   -0.0500
     17 C17        -6.0446    2.6341   53.2092 C.ar    1  ZINC000848949366   -0.1500
     18 C18        -5.2193    3.1240   52.2091 C.ar    1  ZINC000848949366    0.1900
     19 O19        -4.8373    4.4254   52.2178 O.3     1  ZINC000848949366   -0.4700
     20 N20        -2.4995    1.1114   46.1141 N.am    1  ZINC000848949366   -0.6400
     21 C21        -2.0359    0.1473   45.3089 C.2     1  ZINC000848949366    0.7100
     22 O22        -2.5807   -0.0368   44.2379 O.2     1  ZINC000848949366   -0.5600
     23 N23        -0.9847   -0.6255   45.6469 N.am    1  ZINC000848949366   -0.7100
     24 C24        -0.3293   -0.3888   46.9442 C.3     1  ZINC000848949366    0.2000
     25 H25         0.7201   -0.1634   46.7542 H       1  ZINC000848949366    0.0900
     26 C26        -0.3900   -1.6894   47.7476 C.3     1  ZINC000848949366   -0.1700
     27 H27         2.6160    0.8261   51.8920 H       1  ZINC000848949366    0.0800
     28 H28         1.5884   -0.2382   50.9021 H       1  ZINC000848949366    0.0700
     29 H29         3.0348    0.5164   50.1900 H       1  ZINC000848949366    0.0700
     30 H30         0.5537    1.9991   51.1711 H       1  ZINC000848949366    0.0700
     31 H31         2.0000    2.7537   50.4589 H       1  ZINC000848949366    0.0700
     32 H32        -1.7626    3.0748   48.6446 H       1  ZINC000848949366    0.1100
     33 H33        -3.1408    3.1705   47.5222 H       1  ZINC000848949366    0.1000
     34 H34        -4.8603    0.2675   50.3983 H       1  ZINC000848949366    0.1500
     35 H35        -6.3143   -0.5756   52.1887 H       1  ZINC000848949366    0.1500
     36 H36        -6.3814    3.2887   53.9995 H       1  ZINC000848949366    0.1500
     37 H37        -4.2549    4.6693   51.4853 H       1  ZINC000848949366    0.4000
     38 H38        -3.2597    1.6332   45.8129 H       1  ZINC000848949366    0.4300
     39 H39        -0.6655   -1.3189   45.0484 H       1  ZINC000848949366    0.4400
     40 H40         0.1281   -2.4781   47.2020 H       1  ZINC000848949366    0.0700
     41 H41         0.0897   -1.5415   48.7151 H       1  ZINC000848949366    0.0700
     42 H42        -1.4311   -1.9753   47.8981 H       1  ZINC000848949366    0.0700
@<TRIPOS>BOND
     1     1     2    1
     2     1    27    1
     3     1    28    1
     4     1    29    1
     5     2     3    1
     6     2    30    1
     7     2    31    1
     8     3     4    1
     9     4     5    2
    10     4     6    1
    11     6    24    1
    12     6     7    2
    13     7     8    1
    14     7    20    1
    15     8     9    1
    16     8    32    1
    17     8    33    1
    18     9    10    1
    19    10    11    2
    20    10    12    1
    21    12    18   ar
    22    12    13   ar
    23    13    14   ar
    24    13    34    1
    25    14    15   ar
    26    14    35    1
    27    15    16    1
    28    15    17   ar
    29    17    18   ar
    30    17    36    1
    31    18    19    1
    32    19    37    1
    33    20    21   am
    34    20    38    1
    35    21    22    2
    36    21    23   am
    37    23    24    1
    38    23    39    1
    39    24    25    1
    40    24    26    1
    41    26    40    1
    42    26    41    1
    43    26    42    1
@<TRIPOS>SUBSTRUCTURE
     1 ZINC000848949366        1 TEMP              0 ****  ****    0 ROOT


##########                                Name:    ZINC000771225867
##########                DOCK_Rotatable_Bonds:                   9
##########                         Heavy_Atoms:                  23
##########                    Molecular_Weight:             355.802
##########                DOCK_Rotatable_Bonds:                   9
##########                       Formal_Charge:        -3.12924e-07
##########                     HBond_Acceptors:                   9
##########                        HBond_Donors:                   3
##########                         Heavy_Atoms:                  23
##########                          Grid_Score:          -32.689301
##########                     Grid_vdw_energy:          -31.997179
##########                      Grid_es_energy:           -0.692122
##########           Internal_energy_repulsive:            9.943801

@<TRIPOS>MOLECULE
ZINC000771225867
 37 38 1 0 0
SMALL
USER_CHARGES


@<TRIPOS>ATOM
      1 C1         -8.0575   -1.4268   51.9281 C.3     1  ZINC000771225867    0.0400
      2 O2         -6.9932   -0.5548   51.5419 O.3     1  ZINC000771225867   -0.3600
      3 C3         -6.6703    0.4355   52.4003 C.2     1  ZINC000771225867    0.5500
      4 O4         -7.1932    0.4837   53.4982 O.2     1  ZINC000771225867   -0.4900
      5 C5         -5.7239    1.4180   52.0234 C.2     1  ZINC000771225867   -0.3400
      6 C6         -5.4911    2.6048   52.6681 C.2     1  ZINC000771225867    0.2700
      7 Cl7        -6.3547    3.0927   54.0927 Cl      1  ZINC000771225867    0.0400
      8 N8         -4.5587    3.3370   52.1130 N.2     1  ZINC000771225867   -0.5500
      9 C9         -3.9824    2.8617   51.0461 C.2     1  ZINC000771225867    0.3400
     10 N10        -2.9855    3.5010   50.3418 N.pl3   1  ZINC000771225867   -0.6700
     11 C11        -1.6189    2.9738   50.3646 C.3     1  ZINC000771225867    0.1700
     12 C12        -1.4841    1.8828   49.3339 C.ar    1  ZINC000771225867   -0.0800
     13 C13        -0.6675    0.7952   49.5821 C.ar    1  ZINC000771225867   -0.1300
     14 C14        -0.5417   -0.2076   48.6383 C.ar    1  ZINC000771225867   -0.0800
     15 C15        -1.2320   -0.1249   47.4448 C.ar    1  ZINC000771225867   -0.2000
     16 C16        -2.0524    0.9655   47.1932 C.ar    1  ZINC000771225867    0.1300
     17 O17        -2.7330    1.0490   46.0199 O.3     1  ZINC000771225867   -0.2900
     18 C18        -2.1320    1.8157   44.9745 C.3     1  ZINC000771225867    0.0400
     19 C19        -1.2808    0.9152   44.1167 C.2     1  ZINC000771225867    0.5200
     20 N20        -1.8511    0.1695   43.1496 N.am    1  ZINC000771225867   -0.8500
     21 O21        -0.0826    0.8616   44.2968 O.2     1  ZINC000771225867   -0.5200
     22 C22        -2.1812    1.9674   48.1439 C.ar    1  ZINC000771225867   -0.1200
     23 S23        -4.6287    1.3309   50.6460 S.3     1  ZINC000771225867    0.2200
     24 H24        -7.7996   -1.9227   52.8638 H       1  ZINC000771225867    0.0600
     25 H25        -8.9708   -0.8474   52.0636 H       1  ZINC000771225867    0.0600
     26 H26        -8.2140   -2.1752   51.1512 H       1  ZINC000771225867    0.1000
     27 H27        -3.1886    4.3002   49.8310 H       1  ZINC000771225867    0.4200
     28 H28        -0.9162    3.7760   50.1386 H       1  ZINC000771225867    0.0900
     29 H29        -1.4021    2.5687   51.3530 H       1  ZINC000771225867    0.0900
     30 H30        -0.1266    0.7290   50.5145 H       1  ZINC000771225867    0.1300
     31 H31         0.0971   -1.0560   48.8344 H       1  ZINC000771225867    0.1300
     32 H32        -1.1332   -0.9083   46.7079 H       1  ZINC000771225867    0.1300
     33 H33        -2.9115    2.2696   44.3627 H       1  ZINC000771225867    0.1000
     34 H34        -1.5096    2.5978   45.4092 H       1  ZINC000771225867    0.1000
     35 H35        -1.3030   -0.4092   42.5968 H       1  ZINC000771225867    0.4000
     36 H36        -2.8095    0.2116   43.0065 H       1  ZINC000771225867    0.4100
     37 H37        -2.8190    2.8172   47.9505 H       1  ZINC000771225867    0.1400
@<TRIPOS>BOND
     1     1     2    1
     2     1    24    1
     3     1    25    1
     4     1    26    1
     5     2     3    1
     6     3     4    2
     7     3     5    1
     8     5    23    1
     9     5     6    2
    10     6     7    1
    11     6     8    1
    12     8     9    2
    13     9    10    1
    14     9    23    1
    15    10    11    1
    16    10    27    1
    17    11    12    1
    18    11    28    1
    19    11    29    1
    20    12    22   ar
    21    12    13   ar
    22    13    14   ar
    23    13    30    1
    24    14    15   ar
    25    14    31    1
    26    15    16   ar
    27    15    32    1
    28    16    17    1
    29    16    22   ar
    30    17    18    1
    31    18    19    1
    32    18    33    1
    33    18    34    1
    34    19    20   am
    35    19    21    2
    36    20    35    1
    37    20    36    1
    38    22    37    1
@<TRIPOS>SUBSTRUCTURE
     1 ZINC000771225867        1 TEMP              0 ****  ****    0 ROOT


##########                                Name:    ZINC000740843182
##########                DOCK_Rotatable_Bonds:                  10
##########                         Heavy_Atoms:                  24
##########                    Molecular_Weight:              419.34
##########                DOCK_Rotatable_Bonds:                  10
##########                       Formal_Charge:          0.00999957
##########                     HBond_Acceptors:                   7
##########                        HBond_Donors:                   3
##########                         Heavy_Atoms:                  24
##########                          Grid_Score:          -32.687531
##########                     Grid_vdw_energy:          -31.960537
##########                      Grid_es_energy:           -0.726993
##########           Internal_energy_repulsive:           10.800204

@<TRIPOS>MOLECULE
ZINC000740843182
 47 48 1 0 0
SMALL
USER_CHARGES


@<TRIPOS>ATOM
      1 C1         -8.3784    0.4046   51.8079 C.3     1  ZINC000740843182   -0.1500
      2 C2         -7.7159    0.7106   53.1527 C.3     1  ZINC000740843182   -0.1000
      3 H3         -7.0408   -0.1028   53.4185 H       1  ZINC000740843182    0.0900
      4 C4         -6.9247    2.0159   53.0460 C.3     1  ZINC000740843182    0.1200
      5 N5         -5.6361    1.7545   52.4002 N.am    1  ZINC000740843182   -0.7200
      6 C6         -4.8662    2.7826   51.9918 C.2     1  ZINC000740843182    0.5500
      7 O7         -5.2418    3.9267   52.1578 O.2     1  ZINC000740843182   -0.5000
      8 C8         -3.5653    2.5189   51.3418 C.ar    1  ZINC000740843182   -0.1300
      9 C9         -3.5172    2.1236   50.0041 C.ar    1  ZINC000740843182    0.0200
     10 C10        -2.2997    1.8795   49.4033 C.ar    1  ZINC000740843182   -0.6800
     11 S11        -2.2374    1.3805   47.7146 S.o2    1  ZINC000740843182    2.7000
     12 O12        -3.5757    1.4089   47.2381 O.2     1  ZINC000740843182   -0.9400
     13 O13        -1.1833    2.1217   47.1157 O.2     1  ZINC000740843182   -0.9500
     14 N14        -1.7658   -0.2068   47.6896 N.am    1  ZINC000740843182   -1.0900
     15 C15        -0.4730   -0.5959   48.2582 C.3     1  ZINC000740843182    0.0800
     16 C16         0.1146   -1.9398   47.8228 C.3     1  ZINC000740843182   -0.1800
     17 C17         0.7308   -0.6347   47.3147 C.3     1  ZINC000740843182   -0.1900
     18 C18        -1.1271    2.0259   50.1233 C.ar    1  ZINC000740843182    0.0100
     19 C19        -1.1664    2.4173   51.4494 C.ar    1  ZINC000740843182   -0.1200
     20 C20        -2.3777    2.6697   52.0620 C.ar    1  ZINC000740843182    0.0100
     21 Br21       -2.4299    3.2046   53.8751 Br      1  ZINC000740843182    0.0100
     22 C22        -8.7922    0.8532   54.2307 C.3     1  ZINC000740843182   -0.1400
     23 C23        -8.6405   -0.2732   55.2549 C.3     1  ZINC000740843182    0.1000
     24 H24        -7.5820   -0.4578   55.4380 H       1  ZINC000740843182    0.1000
     25 C25        -9.2939   -1.5463   54.7134 C.3     1  ZINC000740843182   -0.1900
     26 O26        -9.2764    0.1056   56.4773 O.3     1  ZINC000740843182   -0.5600
     27 H27        -8.9420   -0.5253   51.8837 H       1  ZINC000740843182    0.0600
     28 H28        -9.0534    1.2180   51.5420 H       1  ZINC000740843182    0.0600
     29 H29        -7.6116    0.3031   51.0398 H       1  ZINC000740843182    0.0500
     30 H30        -7.4891    2.7354   52.4529 H       1  ZINC000740843182    0.0700
     31 H31        -6.7556    2.4207   54.0439 H       1  ZINC000740843182    0.0700
     32 H32        -5.3368    0.8416   52.2666 H       1  ZINC000740843182    0.4000
     33 H33        -4.4314    2.0088   49.4406 H       1  ZINC000740843182    0.1500
     34 H34        -2.3456   -0.8788   47.2984 H       1  ZINC000740843182    0.4200
     35 H35        -0.2968   -0.2785   49.2860 H       1  ZINC000740843182    0.1400
     36 H36         0.6774   -2.5069   48.5642 H       1  ZINC000740843182    0.1100
     37 H37        -0.4607   -2.5344   47.1131 H       1  ZINC000740843182    0.1000
     38 H38         0.5609   -0.3708   46.2709 H       1  ZINC000740843182    0.1000
     39 H39         1.6990   -0.3433   47.7219 H       1  ZINC000740843182    0.1100
     40 H40        -0.1768    1.8335   49.6475 H       1  ZINC000740843182    0.1600
     41 H41        -0.2475    2.5297   52.0056 H       1  ZINC000740843182    0.1500
     42 H42        -8.6809    1.8157   54.7300 H       1  ZINC000740843182    0.0700
     43 H43        -9.7781    0.7948   53.7697 H       1  ZINC000740843182    0.0800
     44 H44        -8.8088   -1.8353   53.7810 H       1  ZINC000740843182    0.0700
     45 H45        -9.1859   -2.3488   55.4431 H       1  ZINC000740843182    0.0600
     46 H46       -10.3525   -1.3618   54.5302 H       1  ZINC000740843182    0.0600
     47 H47       -10.2350    0.2116   56.4056 H       1  ZINC000740843182    0.3700
@<TRIPOS>BOND
     1     1     2    1
     2     1    27    1
     3     1    28    1
     4     1    29    1
     5     2     3    1
     6     2     4    1
     7     2    22    1
     8     4     5    1
     9     4    30    1
    10     4    31    1
    11     5     6   am
    12     5    32    1
    13     6     7    2
    14     6     8    1
    15     8    20   ar
    16     8     9   ar
    17     9    10   ar
    18     9    33    1
    19    10    11    1
    20    10    18   ar
    21    11    12    2
    22    11    13    2
    23    11    14   am
    24    14    15    1
    25    14    34    1
    26    15    17    1
    27    15    16    1
    28    15    35    1
    29    16    17    1
    30    16    36    1
    31    16    37    1
    32    17    38    1
    33    17    39    1
    34    18    19   ar
    35    18    40    1
    36    19    20   ar
    37    19    41    1
    38    20    21    1
    39    22    23    1
    40    22    42    1
    41    22    43    1
    42    23    24    1
    43    23    25    1
    44    23    26    1
    45    25    44    1
    46    25    45    1
    47    25    46    1
    48    26    47    1
@<TRIPOS>SUBSTRUCTURE
     1 ZINC000740843182        1 TEMP              0 ****  ****    0 ROOT


##########                                Name:    ZINC000489986384
##########                DOCK_Rotatable_Bonds:                  11
##########                         Heavy_Atoms:                  31
##########                    Molecular_Weight:             415.492
##########                DOCK_Rotatable_Bonds:                  11
##########                       Formal_Charge:          -0.0499997
##########                     HBond_Acceptors:                   6
##########                        HBond_Donors:                   2
##########                         Heavy_Atoms:                  31
##########                          Grid_Score:          -32.671772
##########                     Grid_vdw_energy:          -30.499521
##########                      Grid_es_energy:           -2.172250
##########           Internal_energy_repulsive:           11.109556

@<TRIPOS>MOLECULE
ZINC000489986384
 56 59 1 0 0
SMALL
USER_CHARGES


@<TRIPOS>ATOM
      1 O1         -7.5929   -1.1220   59.0979 O.2     1  ZINC000489986384   -0.5000
      2 C2         -8.1113   -0.6091   60.0670 C.2     1  ZINC000489986384    0.4900
      3 C3         -8.4975   -1.4564   61.2518 C.3     1  ZINC000489986384    0.0900
      4 N4         -9.4093   -0.7020   62.1153 N.pl3   1  ZINC000489986384   -0.4700
      5 C5         -9.0665   -0.0055   63.2570 C.ar    1  ZINC000489986384    0.0700
      6 C6         -7.8751    0.2147   63.9339 C.ar    1  ZINC000489986384   -0.1100
      7 C7         -7.8726    0.9803   65.0808 C.ar    1  ZINC000489986384   -0.0900
      8 C8         -9.0520    1.5304   65.5615 C.ar    1  ZINC000489986384   -0.1300
      9 C9        -10.2343    1.3239   64.9086 C.ar    1  ZINC000489986384   -0.0600
     10 C10       -10.2610    0.5524   63.7442 C.ar    1  ZINC000489986384    0.0500
     11 N11       -11.2494    0.1752   62.8930 N.2     1  ZINC000489986384   -0.4600
     12 C12       -10.7498   -0.5528   61.9375 C.2     1  ZINC000489986384    0.2800
     13 C13       -11.5423   -1.1531   60.8050 C.3     1  ZINC000489986384    0.1400
     14 O14       -12.5567   -2.0090   61.3346 O.3     1  ZINC000489986384   -0.3000
     15 C15       -13.6128   -2.2879   60.5260 C.ar    1  ZINC000489986384    0.1300
     16 C16       -14.8937   -2.3550   61.0544 C.ar    1  ZINC000489986384   -0.2100
     17 C17       -15.9656   -2.6382   60.2301 C.ar    1  ZINC000489986384   -0.0800
     18 C18       -15.7625   -2.8551   58.8798 C.ar    1  ZINC000489986384   -0.1600
     19 C19       -14.4868   -2.7892   58.3508 C.ar    1  ZINC000489986384   -0.0800
     20 C20       -13.4123   -2.5003   59.1698 C.ar    1  ZINC000489986384   -0.1500
     21 N21        -8.3369    0.7196   60.0866 N.am    1  ZINC000489986384   -0.7300
     22 C22        -7.9614    1.5433   58.9348 C.3     1  ZINC000489986384    0.1300
     23 C23        -9.1609    1.6834   57.9954 C.3     1  ZINC000489986384   -0.0600
     24 H24       -10.0545    1.2989   58.4872 H       1  ZINC000489986384    0.0900
     25 C25        -9.3657    3.1589   57.6465 C.3     1  ZINC000489986384    0.0800
     26 O26       -10.3787    3.2755   56.6453 O.3     1  ZINC000489986384   -0.5700
     27 C27        -8.9053    0.8997   56.7338 C.ar    1  ZINC000489986384   -0.0700
     28 C28        -7.8961    1.2869   55.8722 C.ar    1  ZINC000489986384   -0.1100
     29 C29        -7.6616    0.5680   54.7149 C.ar    1  ZINC000489986384   -0.1200
     30 C30        -8.4361   -0.5382   54.4196 C.ar    1  ZINC000489986384   -0.1200
     31 C31        -9.4447   -0.9260   55.2817 C.ar    1  ZINC000489986384   -0.1200
     32 C32        -9.6764   -0.2097   56.4411 C.ar    1  ZINC000489986384   -0.1100
     33 H33        -8.9931   -2.3630   60.9042 H       1  ZINC000489986384    0.1200
     34 H34        -7.6030   -1.7242   61.8141 H       1  ZINC000489986384    0.1200
     35 H35        -6.9543   -0.2118   63.5644 H       1  ZINC000489986384    0.1200
     36 H36        -6.9463    1.1525   65.6087 H       1  ZINC000489986384    0.1300
     37 H37        -9.0355    2.1277   66.4613 H       1  ZINC000489986384    0.1300
     38 H38       -11.1468    1.7562   65.2920 H       1  ZINC000489986384    0.1300
     39 H39       -12.0063   -0.3562   60.2238 H       1  ZINC000489986384    0.0800
     40 H40       -10.8779   -1.7314   60.1630 H       1  ZINC000489986384    0.1000
     41 H41       -15.0527   -2.1864   62.1092 H       1  ZINC000489986384    0.1300
     42 H42       -16.9630   -2.6906   60.6410 H       1  ZINC000489986384    0.1300
     43 H43       -16.6018   -3.0767   58.2372 H       1  ZINC000489986384    0.1200
     44 H44       -14.3306   -2.9592   57.2958 H       1  ZINC000489986384    0.1300
     45 H45       -12.4160   -2.4488   58.7561 H       1  ZINC000489986384    0.1300
     46 H46        -8.7479    1.1303   60.8633 H       1  ZINC000489986384    0.4000
     47 H47        -7.6524    2.5301   59.2791 H       1  ZINC000489986384    0.0800
     48 H48        -7.1366    1.0694   58.4025 H       1  ZINC000489986384    0.0800
     49 H49        -9.6726    3.7042   58.5390 H       1  ZINC000489986384    0.0500
     50 H50        -8.4322    3.5761   57.2690 H       1  ZINC000489986384    0.0500
     51 H51       -10.1836    2.7930   55.8303 H       1  ZINC000489986384    0.3800
     52 H52        -7.2911    2.1512   56.1029 H       1  ZINC000489986384    0.1200
     53 H53        -6.8736    0.8710   54.0414 H       1  ZINC000489986384    0.1200
     54 H54        -8.2533   -1.0995   53.5152 H       1  ZINC000489986384    0.1200
     55 H55       -10.0499   -1.7902   55.0509 H       1  ZINC000489986384    0.1200
     56 H56       -10.4643   -0.5126   57.1147 H       1  ZINC000489986384    0.1200
@<TRIPOS>BOND
     1     1     2    2
     2     2     3    1
     3     2    21   am
     4     3     4    1
     5     3    33    1
     6     3    34    1
     7     4    12    1
     8     4     5    1
     9     5    10   ar
    10     5     6   ar
    11     6     7   ar
    12     6    35    1
    13     7     8   ar
    14     7    36    1
    15     8     9   ar
    16     8    37    1
    17     9    10   ar
    18     9    38    1
    19    10    11    1
    20    11    12    2
    21    12    13    1
    22    13    14    1
    23    13    39    1
    24    13    40    1
    25    14    15    1
    26    15    20   ar
    27    15    16   ar
    28    16    17   ar
    29    16    41    1
    30    17    18   ar
    31    17    42    1
    32    18    19   ar
    33    18    43    1
    34    19    20   ar
    35    19    44    1
    36    20    45    1
    37    21    22    1
    38    21    46    1
    39    22    23    1
    40    22    47    1
    41    22    48    1
    42    23    24    1
    43    23    25    1
    44    23    27    1
    45    25    26    1
    46    25    49    1
    47    25    50    1
    48    26    51    1
    49    27    32   ar
    50    27    28   ar
    51    28    29   ar
    52    28    52    1
    53    29    30   ar
    54    29    53    1
    55    30    31   ar
    56    30    54    1
    57    31    32   ar
    58    31    55    1
    59    32    56    1
@<TRIPOS>SUBSTRUCTURE
     1 ZINC000489986384        1 TEMP              0 ****  ****    0 ROOT


##########                                Name:    ZINC000937331732
##########                DOCK_Rotatable_Bonds:                   6
##########                         Heavy_Atoms:                  24
##########                    Molecular_Weight:              333.35
##########                DOCK_Rotatable_Bonds:                   6
##########                       Formal_Charge:          -0.0299999
##########                     HBond_Acceptors:                  10
##########                        HBond_Donors:                   1
##########                         Heavy_Atoms:                  24
##########                          Grid_Score:          -32.610535
##########                     Grid_vdw_energy:          -30.420700
##########                      Grid_es_energy:           -2.189835
##########           Internal_energy_repulsive:           22.828520

@<TRIPOS>MOLECULE
ZINC000937331732
 43 45 1 0 0
SMALL
USER_CHARGES


@<TRIPOS>ATOM
      1 C1        -11.3364   -0.5395   55.6999 C.3     1  ZINC000937331732    0.0600
      2 N2        -10.7193   -1.8651   55.7920 N.am    1  ZINC000937331732   -0.6100
      3 C3        -10.1235   -2.4075   54.7117 C.2     1  ZINC000937331732    0.5000
      4 O4         -9.6113   -3.5042   54.7883 O.2     1  ZINC000937331732   -0.5200
      5 C5        -10.0937   -1.6514   53.4084 C.3     1  ZINC000937331732    0.1500
      6 N6         -8.8309   -0.9169   53.2988 N.am    1  ZINC000937331732   -0.4400
      7 N7         -8.2954   -0.0383   54.2508 N.2     1  ZINC000937331732   -0.2800
      8 C8         -7.1712    0.4125   53.7955 C.2     1  ZINC000937331732    0.2600
      9 N9         -6.9385   -0.1421   52.5606 N.am    1  ZINC000937331732   -0.5600
     10 C10        -5.7714    0.1121   51.7124 C.3     1  ZINC000937331732    0.1000
     11 C11        -7.9646   -0.9650   52.2652 C.2     1  ZINC000937331732    0.6500
     12 O12        -8.0906   -1.6246   51.2488 O.2     1  ZINC000937331732   -0.5500
     13 C13       -10.7498   -2.6009   57.0585 C.3     1  ZINC000937331732    0.1300
     14 H14       -10.4139   -3.6278   56.9144 H       1  ZINC000937331732    0.1200
     15 C15        -9.8850   -1.8856   58.1300 C.3     1  ZINC000937331732   -0.1500
     16 C16       -10.5620   -2.3569   59.4412 C.3     1  ZINC000937331732    0.1000
     17 N17       -12.0019   -2.4007   59.1279 N.am    1  ZINC000937331732   -0.6000
     18 C18       -13.0041   -2.3041   60.0239 C.2     1  ZINC000937331732    0.6200
     19 O19       -12.7520   -2.1669   61.2055 O.2     1  ZINC000937331732   -0.5400
     20 C20       -14.4058   -2.3650   59.5714 C.2     1  ZINC000937331732    0.1400
     21 N21       -15.4672   -2.3802   60.3495 N.2     1  ZINC000937331732   -0.4400
     22 C22       -16.5607   -2.4381   59.5929 C.2     1  ZINC000937331732   -0.0300
     23 C23       -16.1793   -2.4602   58.2923 C.2     1  ZINC000937331732   -0.0200
     24 N24       -14.8263   -2.4094   58.2719 N.pl3   1  ZINC000937331732   -0.5200
     25 C25       -12.1648   -2.5704   57.6736 C.3     1  ZINC000937331732    0.1000
     26 H26       -12.3801   -0.6444   55.4037 H       1  ZINC000937331732    0.0700
     27 H27       -11.2819   -0.0452   56.6699 H       1  ZINC000937331732    0.0800
     28 H28       -10.8062    0.0573   54.9577 H       1  ZINC000937331732    0.0800
     29 H29       -10.1788   -2.3535   52.5790 H       1  ZINC000937331732    0.1300
     30 H30       -10.9265   -0.9489   53.3768 H       1  ZINC000937331732    0.1300
     31 H31        -6.5222    1.1108   54.3032 H       1  ZINC000937331732    0.2300
     32 H32        -5.1056    0.8159   52.2118 H       1  ZINC000937331732    0.1000
     33 H33        -5.2421   -0.8238   51.5327 H       1  ZINC000937331732    0.0800
     34 H34        -6.0980    0.5331   50.7616 H       1  ZINC000937331732    0.0800
     35 H35        -8.8488   -2.2206   58.0829 H       1  ZINC000937331732    0.0900
     36 H36        -9.9492   -0.8026   58.0244 H       1  ZINC000937331732    0.0800
     37 H37       -10.2036   -3.3483   59.7181 H       1  ZINC000937331732    0.0800
     38 H38       -10.3700   -1.6452   60.2442 H       1  ZINC000937331732    0.1100
     39 H39       -17.5784   -2.4631   59.9538 H       1  ZINC000937331732    0.1800
     40 H40       -16.8322   -2.5062   57.4333 H       1  ZINC000937331732    0.1900
     41 H41       -14.2616   -2.4102   57.4832 H       1  ZINC000937331732    0.4300
     42 H42       -12.7270   -1.7317   57.2632 H       1  ZINC000937331732    0.0800
     43 H43       -12.6851   -3.5054   57.4656 H       1  ZINC000937331732    0.0800
@<TRIPOS>BOND
     1     1     2    1
     2     1    26    1
     3     1    27    1
     4     1    28    1
     5     2     3   am
     6     2    13    1
     7     3     4    2
     8     3     5    1
     9     5     6    1
    10     5    29    1
    11     5    30    1
    12     6    11   am
    13     6     7    1
    14     7     8    2
    15     8     9    1
    16     8    31    1
    17     9    10    1
    18     9    11   am
    19    10    32    1
    20    10    33    1
    21    10    34    1
    22    11    12    2
    23    13    14    1
    24    13    25    1
    25    13    15    1
    26    15    16    1
    27    15    35    1
    28    15    36    1
    29    16    17    1
    30    16    37    1
    31    16    38    1
    32    17    18   am
    33    17    25    1
    34    18    19    2
    35    18    20    1
    36    20    24    1
    37    20    21    2
    38    21    22    1
    39    22    23    2
    40    22    39    1
    41    23    24    1
    42    23    40    1
    43    24    41    1
    44    25    42    1
    45    25    43    1
@<TRIPOS>SUBSTRUCTURE
     1 ZINC000937331732        1 TEMP              0 ****  ****    0 ROOT


##########                                Name:    ZINC000668548901
##########                DOCK_Rotatable_Bonds:                   9
##########                         Heavy_Atoms:                  26
##########                    Molecular_Weight:             374.464
##########                DOCK_Rotatable_Bonds:                   9
##########                       Formal_Charge:         3.53903e-07
##########                     HBond_Acceptors:                   8
##########                        HBond_Donors:                   3
##########                         Heavy_Atoms:                  26
##########                          Grid_Score:          -32.597389
##########                     Grid_vdw_energy:          -27.513811
##########                      Grid_es_energy:           -5.083580
##########           Internal_energy_repulsive:           15.724548

@<TRIPOS>MOLECULE
ZINC000668548901
 48 50 1 0 0
SMALL
USER_CHARGES


@<TRIPOS>ATOM
      1 O1          2.4623    1.0611   49.5499 O.2     1  ZINC000668548901   -0.5700
      2 C2          2.1757    0.2943   50.4488 C.2     1  ZINC000668548901    0.7100
      3 N3          0.9898   -0.3462   50.4357 N.am    1  ZINC000668548901   -0.6800
      4 C4          0.0887   -0.1249   49.3932 C.ar    1  ZINC000668548901    0.2200
      5 C5         -0.1382   -1.1036   48.4241 C.ar    1  ZINC000668548901   -0.1700
      6 C6         -1.0353   -0.8504   47.4085 C.ar    1  ZINC000668548901    0.1200
      7 N7         -1.6781    0.3006   47.3424 N.ar    1  ZINC000668548901   -0.4300
      8 C8         -1.4925    1.2569   48.2415 C.ar    1  ZINC000668548901    0.1100
      9 S9         -2.3808    2.7719   48.0994 S.3     1  ZINC000668548901    0.0900
     10 C10        -3.3411    2.8083   49.5764 C.ar    1  ZINC000668548901    0.0900
     11 C11        -3.9381    1.6403   50.0395 C.ar    1  ZINC000668548901   -0.1500
     12 C12        -4.6889    1.6832   51.2006 C.ar    1  ZINC000668548901   -0.0700
     13 C13        -4.8179    2.8973   51.8619 C.ar    1  ZINC000668548901   -0.1700
     14 C14        -4.1980    4.0181   51.3455 C.ar    1  ZINC000668548901    0.1000
     15 N15        -3.4837    3.9467   50.2388 N.ar    1  ZINC000668548901   -0.4200
     16 C16        -0.6097    1.0742   49.2975 C.ar    1  ZINC000668548901   -0.1800
     17 N17         3.0459    0.0806   51.4555 N.am    1  ZINC000668548901   -0.7200
     18 C18         4.3348    0.7767   51.4697 C.3     1  ZINC000668548901    0.1700
     19 H19         4.6613    0.9577   50.4456 H       1  ZINC000668548901    0.1000
     20 C20         5.3724   -0.0857   52.1911 C.3     1  ZINC000668548901    0.0600
     21 O21         5.3303   -1.4162   51.6713 O.3     1  ZINC000668548901   -0.5700
     22 C22         4.1848    2.1125   52.2008 C.3     1  ZINC000668548901   -0.1300
     23 H23         3.4473    2.7284   51.6862 H       1  ZINC000668548901    0.1000
     24 C24         5.5333    2.8387   52.2219 C.3     1  ZINC000668548901   -0.1200
     25 C25         5.3893    4.1366   53.0225 C.3     1  ZINC000668548901   -0.1600
     26 C26         4.8855    3.8055   54.4299 C.3     1  ZINC000668548901    0.0600
     27 O27         3.6440    3.1041   54.3372 O.3     1  ZINC000668548901   -0.3800
     28 C28         3.7261    1.8597   53.6393 C.3     1  ZINC000668548901    0.0700
     29 H29         0.7628   -0.9611   51.1507 H       1  ZINC000668548901    0.4100
     30 H30         0.3834   -2.0482   48.4693 H       1  ZINC000668548901    0.1500
     31 H31        -1.2145   -1.6044   46.6563 H       1  ZINC000668548901    0.1600
     32 H32        -3.8174    0.7127   49.4998 H       1  ZINC000668548901    0.1400
     33 H33        -5.1644    0.7925   51.5839 H       1  ZINC000668548901    0.1400
     34 H34        -5.3976    2.9646   52.7706 H       1  ZINC000668548901    0.1400
     35 H35        -4.2960    4.9645   51.8565 H       1  ZINC000668548901    0.1600
     36 H36        -0.4605    1.8551   50.0285 H       1  ZINC000668548901    0.1400
     37 H37         2.8189   -0.5343   52.1705 H       1  ZINC000668548901    0.4000
     38 H38         6.3660    0.3343   52.0345 H       1  ZINC000668548901    0.0500
     39 H39         5.1502   -0.1052   53.2580 H       1  ZINC000668548901    0.0600
     40 H40         4.4739   -1.8526   51.7765 H       1  ZINC000668548901    0.3800
     41 H41         6.2831    2.2019   52.6913 H       1  ZINC000668548901    0.0700
     42 H42         5.8379    3.0716   51.2015 H       1  ZINC000668548901    0.0700
     43 H43         6.3576    4.6326   53.0896 H       1  ZINC000668548901    0.0800
     44 H44         4.6759    4.7940   52.5256 H       1  ZINC000668548901    0.0700
     45 H45         5.6186    3.1812   54.9408 H       1  ZINC000668548901    0.0500
     46 H46         4.7404    4.7290   54.9906 H       1  ZINC000668548901    0.1000
     47 H47         2.7463    1.3821   53.6314 H       1  ZINC000668548901    0.1000
     48 H48         4.4437    1.2092   54.1391 H       1  ZINC000668548901    0.0500
@<TRIPOS>BOND
     1     1     2    2
     2     2     3   am
     3     2    17   am
     4     3     4    1
     5     3    29    1
     6     4    16   ar
     7     4     5   ar
     8     5     6   ar
     9     5    30    1
    10     6     7   ar
    11     6    31    1
    12     7     8   ar
    13     8     9    1
    14     8    16   ar
    15     9    10    1
    16    10    15   ar
    17    10    11   ar
    18    11    12   ar
    19    11    32    1
    20    12    13   ar
    21    12    33    1
    22    13    14   ar
    23    13    34    1
    24    14    15   ar
    25    14    35    1
    26    16    36    1
    27    17    18    1
    28    17    37    1
    29    18    19    1
    30    18    20    1
    31    18    22    1
    32    20    21    1
    33    20    38    1
    34    20    39    1
    35    21    40    1
    36    22    23    1
    37    22    28    1
    38    22    24    1
    39    24    25    1
    40    24    41    1
    41    24    42    1
    42    25    26    1
    43    25    43    1
    44    25    44    1
    45    26    27    1
    46    26    45    1
    47    26    46    1
    48    27    28    1
    49    28    47    1
    50    28    48    1
@<TRIPOS>SUBSTRUCTURE
     1 ZINC000668548901        1 TEMP              0 ****  ****    0 ROOT


##########                                Name:    ZINC000451019064
##########                DOCK_Rotatable_Bonds:                   8
##########                         Heavy_Atoms:                  23
##########                    Molecular_Weight:             346.534
##########                DOCK_Rotatable_Bonds:                   8
##########                       Formal_Charge:          -0.0200008
##########                     HBond_Acceptors:                   6
##########                        HBond_Donors:                   1
##########                         Heavy_Atoms:                  23
##########                          Grid_Score:          -32.588276
##########                     Grid_vdw_energy:          -32.613743
##########                      Grid_es_energy:            0.025466
##########           Internal_energy_repulsive:           15.720246

@<TRIPOS>MOLECULE
ZINC000451019064
 57 58 1 0 0
SMALL
USER_CHARGES


@<TRIPOS>ATOM
      1 C1         -1.7885   -0.0627   44.3856 C.3     1  ZINC000451019064   -0.1500
      2 C2         -1.7512   -0.2562   45.9030 C.3     1  ZINC000451019064    0.0900
      3 H3         -2.5849   -0.8878   46.2099 H       1  ZINC000451019064    0.0700
      4 C4         -1.8595    1.1053   46.5947 C.3     1  ZINC000451019064    0.0200
      5 N5         -1.7457    0.9209   48.0487 N.3     1  ZINC000451019064   -0.5400
      6 C6         -1.9016    2.1992   48.7554 C.3     1  ZINC000451019064    0.0600
      7 C7         -3.3901    2.5101   48.9250 C.3     1  ZINC000451019064   -0.1300
      8 C8         -3.9814    1.6005   50.0038 C.3     1  ZINC000451019064    0.1100
      9 N9         -3.4962    2.0244   51.3195 N.am    1  ZINC000451019064   -1.1200
     10 S10        -4.4757    2.9130   52.3163 S.o2    1  ZINC000451019064    2.6100
     11 O11        -3.7221    3.0548   53.5127 O.2     1  ZINC000451019064   -0.9600
     12 O12        -4.8333    4.0461   51.5370 O.2     1  ZINC000451019064   -0.9500
     13 C13        -5.9197    1.8513   52.5958 C.3     1  ZINC000451019064   -0.6300
     14 C14        -6.8770    2.5387   53.5715 C.3     1  ZINC000451019064   -0.1100
     15 C15        -8.1014    1.6494   53.7966 C.3     1  ZINC000451019064   -0.0800
     16 C16        -8.7834    1.3716   52.4555 C.3     1  ZINC000451019064   -0.1200
     17 C17       -10.0079    0.4823   52.6805 C.3     1  ZINC000451019064   -0.1200
     18 C18        -9.5687   -0.8399   53.3128 C.3     1  ZINC000451019064   -0.1200
     19 C19        -8.8867   -0.5621   54.6539 C.3     1  ZINC000451019064   -0.1200
     20 C20        -7.6622    0.3273   54.4288 C.3     1  ZINC000451019064   -0.1200
     21 C21        -0.4684    0.2801   48.3942 C.3     1  ZINC000451019064    0.0200
     22 C22        -0.3740   -1.0730   47.6844 C.3     1  ZINC000451019064    0.0900
     23 H23        -1.1672   -1.7287   48.0437 H       1  ZINC000451019064    0.0700
     24 C24         0.9864   -1.7095   47.9765 C.3     1  ZINC000451019064   -0.1500
     25 O25        -0.5184   -0.8785   46.2749 O.3     1  ZINC000451019064   -0.3800
     26 H26        -1.7097   -1.0322   43.8937 H       1  ZINC000451019064    0.0700
     27 H27        -2.7275    0.4130   44.1030 H       1  ZINC000451019064    0.0700
     28 H28        -0.9546    0.5689   44.0793 H       1  ZINC000451019064    0.0600
     29 H29        -1.0569    1.7554   46.2464 H       1  ZINC000451019064    0.0400
     30 H30        -2.8230    1.5574   46.3595 H       1  ZINC000451019064    0.0900
     31 H31        -1.4305    2.1321   49.7360 H       1  ZINC000451019064    0.0400
     32 H32        -1.4280    2.9935   48.1783 H       1  ZINC000451019064    0.0800
     33 H33        -3.5123    3.5519   49.2210 H       1  ZINC000451019064    0.0800
     34 H34        -3.9071    2.3375   47.9809 H       1  ZINC000451019064    0.0800
     35 H35        -5.0691    1.6668   49.9789 H       1  ZINC000451019064    0.0800
     36 H36        -3.6758    0.5708   49.8183 H       1  ZINC000451019064    0.0700
     37 H37        -2.6014    1.7845   51.6070 H       1  ZINC000451019064    0.4200
     38 H38        -6.4303    1.6756   51.6489 H       1  ZINC000451019064    0.1300
     39 H39        -5.5950    0.8992   53.0155 H       1  ZINC000451019064    0.1400
     40 H40        -6.3695    2.7056   54.5216 H       1  ZINC000451019064    0.0800
     41 H41        -7.1941    3.4953   53.1561 H       1  ZINC000451019064    0.0800
     42 H42        -8.8009    2.1557   54.4618 H       1  ZINC000451019064    0.0800
     43 H43        -9.0964    2.3136   52.0050 H       1  ZINC000451019064    0.0600
     44 H44        -8.0840    0.8655   51.7901 H       1  ZINC000451019064    0.0700
     45 H45       -10.7073    0.9886   53.3458 H       1  ZINC000451019064    0.0600
     46 H46       -10.4938    0.2844   51.7251 H       1  ZINC000451019064    0.0600
     47 H47       -10.4410   -1.4735   53.4731 H       1  ZINC000451019064    0.0600
     48 H48        -8.8692   -1.3461   52.6475 H       1  ZINC000451019064    0.0600
     49 H49        -9.5860   -0.0559   55.3192 H       1  ZINC000451019064    0.0600
     50 H50        -8.5737   -1.5041   55.1044 H       1  ZINC000451019064    0.0600
     51 H51        -6.9628   -0.1790   53.7635 H       1  ZINC000451019064    0.0700
     52 H52        -7.1763    0.5251   55.3843 H       1  ZINC000451019064    0.0600
     53 H53         0.3564    0.9170   48.0746 H       1  ZINC000451019064    0.0400
     54 H54        -0.4165    0.1299   49.4725 H       1  ZINC000451019064    0.0900
     55 H55         1.0962   -1.8548   49.0512 H       1  ZINC000451019064    0.0700
     56 H56         1.0529   -2.6728   47.4709 H       1  ZINC000451019064    0.0700
     57 H57         1.7790   -1.0541   47.6156 H       1  ZINC000451019064    0.0600
@<TRIPOS>BOND
     1     1     2    1
     2     1    26    1
     3     1    27    1
     4     1    28    1
     5     2     3    1
     6     2    25    1
     7     2     4    1
     8     4     5    1
     9     4    29    1
    10     4    30    1
    11     5     6    1
    12     5    21    1
    13     6     7    1
    14     6    31    1
    15     6    32    1
    16     7     8    1
    17     7    33    1
    18     7    34    1
    19     8     9    1
    20     8    35    1
    21     8    36    1
    22     9    10   am
    23     9    37    1
    24    10    11    2
    25    10    12    2
    26    10    13    1
    27    13    14    1
    28    13    38    1
    29    13    39    1
    30    14    15    1
    31    14    40    1
    32    14    41    1
    33    15    20    1
    34    15    16    1
    35    15    42    1
    36    16    17    1
    37    16    43    1
    38    16    44    1
    39    17    18    1
    40    17    45    1
    41    17    46    1
    42    18    19    1
    43    18    47    1
    44    18    48    1
    45    19    20    1
    46    19    49    1
    47    19    50    1
    48    20    51    1
    49    20    52    1
    50    21    22    1
    51    21    53    1
    52    21    54    1
    53    22    23    1
    54    22    24    1
    55    22    25    1
    56    24    55    1
    57    24    56    1
    58    24    57    1
@<TRIPOS>SUBSTRUCTURE
     1 ZINC000451019064        1 TEMP              0 ****  ****    0 ROOT


##########                                Name:    ZINC001109082135
##########                DOCK_Rotatable_Bonds:                   9
##########                         Heavy_Atoms:                  27
##########                    Molecular_Weight:             373.455
##########                DOCK_Rotatable_Bonds:                   9
##########                       Formal_Charge:          -0.0100003
##########                     HBond_Acceptors:                   8
##########                        HBond_Donors:                   3
##########                         Heavy_Atoms:                  27
##########                          Grid_Score:          -32.578205
##########                     Grid_vdw_energy:          -31.604799
##########                      Grid_es_energy:           -0.973406
##########           Internal_energy_repulsive:           21.770704

@<TRIPOS>MOLECULE
ZINC001109082135
 54 57 1 0 0
SMALL
USER_CHARGES


@<TRIPOS>ATOM
      1 C1        -10.9047    2.9093   52.1396 C.3     1  ZINC001109082135   -0.1400
      2 C2         -9.8355    3.2658   53.1743 C.3     1  ZINC001109082135   -0.1400
      3 C3         -8.6879    2.2951   53.0656 C.2     1  ZINC001109082135    0.5100
      4 O4         -8.8887    1.1577   52.6957 O.2     1  ZINC001109082135   -0.5400
      5 N5         -7.4384    2.6910   53.3794 N.am    1  ZINC001109082135   -0.7200
      6 C6         -6.3230    1.7469   53.2754 C.3     1  ZINC001109082135    0.1000
      7 C7         -5.6900    1.8653   51.9130 C.2     1  ZINC001109082135    0.5100
      8 O8         -6.0419    1.1300   51.0148 O.2     1  ZINC001109082135   -0.5300
      9 N9         -4.7329    2.7882   51.6925 N.am    1  ZINC001109082135   -0.7100
     10 C10        -4.1188    2.9044   50.3674 C.3     1  ZINC001109082135    0.1100
     11 H11        -4.8098    2.5675   49.5947 H       1  ZINC001109082135    0.0900
     12 C12        -3.6708    4.3623   50.1003 C.3     1  ZINC001109082135   -0.1600
     13 C13        -2.1282    4.2412   49.9143 C.3     1  ZINC001109082135    0.0600
     14 H14        -1.6535    5.0603   49.3741 H       1  ZINC001109082135    0.1300
     15 C15        -1.5695    3.9638   51.3426 C.3     1  ZINC001109082135   -0.1200
     16 C16        -2.0148    2.5088   51.6292 C.3     1  ZINC001109082135   -0.1100
     17 C17        -2.7892    2.0937   50.3059 C.3     1  ZINC001109082135    0.0400
     18 H18        -2.8808    1.0218   50.1309 H       1  ZINC001109082135    0.1200
     19 N19        -2.0210    2.8817   49.2740 N.3     1  ZINC001109082135   -0.4800
     20 C20        -2.6984    2.8436   47.9711 C.3     1  ZINC001109082135    0.0800
     21 C21        -2.2765    1.6059   47.2218 C.2     1  ZINC001109082135    0.2000
     22 C22        -2.7025    1.4039   45.9440 C.2     1  ZINC001109082135   -0.2900
     23 C23        -2.2888    0.2356   45.2714 C.2     1  ZINC001109082135    0.5200
     24 O24        -2.6470    0.0161   44.1262 O.2     1  ZINC001109082135   -0.5400
     25 N25        -1.4873   -0.6348   45.9218 N.am    1  ZINC001109082135   -0.6300
     26 C26        -1.1008   -0.3762   47.1866 C.2     1  ZINC001109082135    0.4300
     27 C27        -0.2060   -1.3580   47.8984 C.3     1  ZINC001109082135   -0.1400
     28 C28         1.2108   -1.5467   47.3527 C.3     1  ZINC001109082135   -0.1400
     29 C29         0.9910   -0.7942   48.6666 C.3     1  ZINC001109082135   -0.1400
     30 N30        -1.4800    0.7086   47.8077 N.2     1  ZINC001109082135   -0.5300
     31 H31       -11.2659    1.8976   52.3241 H       1  ZINC001109082135    0.0600
     32 H32       -11.7347    3.6114   52.2182 H       1  ZINC001109082135    0.0600
     33 H33       -10.4753    2.9650   51.1394 H       1  ZINC001109082135    0.0600
     34 H34        -9.4744    4.2776   52.9898 H       1  ZINC001109082135    0.1000
     35 H35       -10.2650    3.2101   54.1746 H       1  ZINC001109082135    0.1000
     36 H36        -7.2777    3.6011   53.6741 H       1  ZINC001109082135    0.4100
     37 H37        -5.5817    1.9746   54.0415 H       1  ZINC001109082135    0.1000
     38 H38        -6.6922    0.7313   53.4175 H       1  ZINC001109082135    0.1000
     39 H39        -4.4507    3.3754   52.4110 H       1  ZINC001109082135    0.4000
     40 H40        -4.1376    4.7471   49.1936 H       1  ZINC001109082135    0.0800
     41 H41        -3.9057    4.9984   50.9537 H       1  ZINC001109082135    0.0800
     42 H42        -0.4822    4.0410   51.3509 H       1  ZINC001109082135    0.0700
     43 H43        -2.0095    4.6495   52.0666 H       1  ZINC001109082135    0.0700
     44 H44        -1.1483    1.8649   51.7797 H       1  ZINC001109082135    0.0700
     45 H45        -2.6756    2.4734   52.4953 H       1  ZINC001109082135    0.0700
     46 H46        -3.7776    2.8261   48.1230 H       1  ZINC001109082135    0.1000
     47 H47        -2.4268    3.7277   47.3944 H       1  ZINC001109082135    0.0700
     48 H48        -3.3440    2.1231   45.4564 H       1  ZINC001109082135    0.1600
     49 H49        -1.1903   -1.4454   45.4793 H       1  ZINC001109082135    0.4200
     50 H50        -0.7055   -2.2321   48.3159 H       1  ZINC001109082135    0.1300
     51 H51         1.6437   -2.5454   47.4110 H       1  ZINC001109082135    0.1100
     52 H52         1.4957   -0.9609   46.4788 H       1  ZINC001109082135    0.1100
     53 H53         1.1314    0.2867   48.6571 H       1  ZINC001109082135    0.1100
     54 H54         1.2793   -1.2978   49.5893 H       1  ZINC001109082135    0.1100
@<TRIPOS>BOND
     1     1     2    1
     2     1    31    1
     3     1    32    1
     4     1    33    1
     5     2     3    1
     6     2    34    1
     7     2    35    1
     8     3     4    2
     9     3     5   am
    10     5     6    1
    11     5    36    1
    12     6     7    1
    13     6    37    1
    14     6    38    1
    15     7     8    2
    16     7     9   am
    17     9    10    1
    18     9    39    1
    19    10    11    1
    20    10    17    1
    21    10    12    1
    22    12    13    1
    23    12    40    1
    24    12    41    1
    25    13    14    1
    26    13    19    1
    27    13    15    1
    28    15    16    1
    29    15    42    1
    30    15    43    1
    31    16    17    1
    32    16    44    1
    33    16    45    1
    34    17    18    1
    35    17    19    1
    36    19    20    1
    37    20    21    1
    38    20    46    1
    39    20    47    1
    40    21    30    1
    41    21    22    2
    42    22    23    1
    43    22    48    1
    44    23    24    2
    45    23    25   am
    46    25    26    1
    47    25    49    1
    48    26    27    1
    49    26    30    2
    50    27    29    1
    51    27    28    1
    52    27    50    1
    53    28    29    1
    54    28    51    1
    55    28    52    1
    56    29    53    1
    57    29    54    1
@<TRIPOS>SUBSTRUCTURE
     1 ZINC001109082135        1 TEMP              0 ****  ****    0 ROOT


##########                                Name:    ZINC000892249927
##########                DOCK_Rotatable_Bonds:                   8
##########                         Heavy_Atoms:                  27
##########                    Molecular_Weight:             364.487
##########                DOCK_Rotatable_Bonds:                   8
##########                       Formal_Charge:          -0.0300015
##########                     HBond_Acceptors:                   4
##########                        HBond_Donors:                   1
##########                         Heavy_Atoms:                  27
##########                          Grid_Score:          -32.560925
##########                     Grid_vdw_energy:          -32.742870
##########                      Grid_es_energy:            0.181945
##########           Internal_energy_repulsive:           12.984687

@<TRIPOS>MOLECULE
ZINC000892249927
 55 58 1 0 0
SMALL
USER_CHARGES


@<TRIPOS>ATOM
      1 O1         -3.2912    2.3819   47.3958 O.2     1  ZINC000892249927   -0.5300
      2 C2         -2.8115    1.8816   48.3911 C.2     1  ZINC000892249927    0.5100
      3 C3         -3.2002    2.3939   49.7541 C.3     1  ZINC000892249927   -0.1400
      4 C4         -4.2810    1.4895   50.3497 C.3     1  ZINC000892249927   -0.1000
      5 C5         -4.6588    1.9959   51.7432 C.3     1  ZINC000892249927   -0.0800
      6 C6         -5.9769    1.3934   52.1563 C.ar    1  ZINC000892249927   -0.0900
      7 C7         -6.2879    0.0963   51.7937 C.ar    1  ZINC000892249927   -0.1100
      8 C8         -7.4970   -0.4564   52.1726 C.ar    1  ZINC000892249927   -0.1100
      9 C9         -8.3948    0.2879   52.9148 C.ar    1  ZINC000892249927   -0.0500
     10 C10        -9.7131   -0.3144   53.3275 C.3     1  ZINC000892249927   -0.1200
     11 C11       -10.4466   -1.1799   52.3009 C.3     1  ZINC000892249927   -0.1800
     12 C12        -9.7703   -1.8326   53.5084 C.3     1  ZINC000892249927   -0.1700
     13 C13        -8.0832    1.5846   53.2786 C.ar    1  ZINC000892249927   -0.1200
     14 C14        -6.8725    2.1359   52.9029 C.ar    1  ZINC000892249927   -0.1100
     15 N15        -1.9351    0.8639   48.2785 N.am    1  ZINC000892249927   -0.7300
     16 C16        -1.5573    0.3659   46.9536 C.3     1  ZINC000892249927    0.1400
     17 H17        -2.3185    0.6494   46.2267 H       1  ZINC000892249927    0.1000
     18 C18        -1.4325   -1.1601   46.9962 C.3     1  ZINC000892249927   -0.1700
     19 C19        -0.3092   -1.5456   47.9623 C.3     1  ZINC000892249927    0.0600
     20 O20         0.9102   -0.9295   47.5432 O.3     1  ZINC000892249927   -0.3700
     21 C21         0.8676    0.4988   47.5296 C.3     1  ZINC000892249927    0.1400
     22 H22         0.6308    0.8649   48.5285 H       1  ZINC000892249927    0.0700
     23 C23         2.2084    1.0375   47.1015 C.ar    1  ZINC000892249927   -0.1400
     24 C24         2.8908    0.4606   46.0418 C.ar    1  ZINC000892249927   -0.0700
     25 C25         4.1212    0.9897   45.6825 C.ar    1  ZINC000892249927   -0.1700
     26 C26         4.6227    2.0669   46.3879 C.ar    1  ZINC000892249927    0.1000
     27 N27         3.9455    2.5906   47.3912 N.ar    1  ZINC000892249927   -0.4900
     28 C28         2.7706    2.1168   47.7569 C.ar    1  ZINC000892249927    0.1300
     29 C29        -0.2094    0.9682   46.5451 C.3     1  ZINC000892249927   -0.1500
     30 H30        -2.3262    2.3931   50.4055 H       1  ZINC000892249927    0.0900
     31 H31        -3.5854    3.4096   49.6643 H       1  ZINC000892249927    0.0900
     32 H32        -5.1612    1.5034   49.7070 H       1  ZINC000892249927    0.0700
     33 H33        -3.9015    0.4704   50.4240 H       1  ZINC000892249927    0.0700
     34 H34        -3.8874    1.7062   52.4566 H       1  ZINC000892249927    0.0700
     35 H35        -4.7462    3.0822   51.7235 H       1  ZINC000892249927    0.0700
     36 H36        -5.5864   -0.4853   51.2138 H       1  ZINC000892249927    0.1200
     37 H37        -7.7403   -1.4697   51.8886 H       1  ZINC000892249927    0.1200
     38 H38       -10.3195    0.2955   53.9971 H       1  ZINC000892249927    0.1100
     39 H39       -11.5358   -1.1396   52.2950 H       1  ZINC000892249927    0.1000
     40 H40        -9.9755   -1.3138   51.3271 H       1  ZINC000892249927    0.1000
     41 H41        -8.8546   -2.3957   53.3288 H       1  ZINC000892249927    0.1000
     42 H42       -10.4148   -2.2215   54.2967 H       1  ZINC000892249927    0.1000
     43 H43        -8.7845    2.1660   53.8588 H       1  ZINC000892249927    0.1200
     44 H44        -6.6291    3.1490   53.1873 H       1  ZINC000892249927    0.1200
     45 H45        -1.5545    0.4613   49.0747 H       1  ZINC000892249927    0.4000
     46 H46        -2.3723   -1.5931   47.3389 H       1  ZINC000892249927    0.0800
     47 H47        -1.1999   -1.5346   45.9992 H       1  ZINC000892249927    0.0800
     48 H48        -0.5613   -1.2062   48.9669 H       1  ZINC000892249927    0.0500
     49 H49        -0.1872   -2.6288   47.9642 H       1  ZINC000892249927    0.1000
     50 H50         2.4742   -0.3814   45.5088 H       1  ZINC000892249927    0.1300
     51 H51         4.6806    0.5650   44.8621 H       1  ZINC000892249927    0.1400
     52 H52         5.5804    2.4847   46.1147 H       1  ZINC000892249927    0.1600
     53 H53         2.2455    2.5719   48.5838 H       1  ZINC000892249927    0.1600
     54 H54         0.0476    0.6371   45.5388 H       1  ZINC000892249927    0.0900
     55 H55        -0.2731    2.0561   46.5664 H       1  ZINC000892249927    0.0800
@<TRIPOS>BOND
     1     1     2    2
     2     2     3    1
     3     2    15   am
     4     3     4    1
     5     3    30    1
     6     3    31    1
     7     4     5    1
     8     4    32    1
     9     4    33    1
    10     5     6    1
    11     5    34    1
    12     5    35    1
    13     6    14   ar
    14     6     7   ar
    15     7     8   ar
    16     7    36    1
    17     8     9   ar
    18     8    37    1
    19     9    10    1
    20     9    13   ar
    21    10    12    1
    22    10    11    1
    23    10    38    1
    24    11    12    1
    25    11    39    1
    26    11    40    1
    27    12    41    1
    28    12    42    1
    29    13    14   ar
    30    13    43    1
    31    14    44    1
    32    15    16    1
    33    15    45    1
    34    16    17    1
    35    16    29    1
    36    16    18    1
    37    18    19    1
    38    18    46    1
    39    18    47    1
    40    19    20    1
    41    19    48    1
    42    19    49    1
    43    20    21    1
    44    21    22    1
    45    21    23    1
    46    21    29    1
    47    23    28   ar
    48    23    24   ar
    49    24    25   ar
    50    24    50    1
    51    25    26   ar
    52    25    51    1
    53    26    27   ar
    54    26    52    1
    55    27    28   ar
    56    28    53    1
    57    29    54    1
    58    29    55    1
@<TRIPOS>SUBSTRUCTURE
     1 ZINC000892249927        1 TEMP              0 ****  ****    0 ROOT


##########                                Name:    ZINC000533131987
##########                DOCK_Rotatable_Bonds:                  11
##########                         Heavy_Atoms:                  30
##########                    Molecular_Weight:             419.403
##########                DOCK_Rotatable_Bonds:                  11
##########                       Formal_Charge:                0.01
##########                     HBond_Acceptors:                   9
##########                        HBond_Donors:                   3
##########                         Heavy_Atoms:                  30
##########                          Grid_Score:          -32.560822
##########                     Grid_vdw_energy:          -32.450336
##########                      Grid_es_energy:           -0.110484
##########           Internal_energy_repulsive:           25.778423

@<TRIPOS>MOLECULE
ZINC000533131987
 50 52 1 0 0
SMALL
USER_CHARGES


@<TRIPOS>ATOM
      1 O1         -3.8223    1.6505   50.4045 O.2     1  ZINC000533131987   -0.5700
      2 C2         -3.4512    2.7267   49.9772 C.2     1  ZINC000533131987    0.7100
      3 N3         -3.1368    2.8621   48.6736 N.am    1  ZINC000533131987   -0.7400
      4 C4         -3.2366    1.7113   47.7727 C.3     1  ZINC000533131987    0.1400
      5 C5         -1.9741    1.6259   46.9127 C.3     1  ZINC000533131987   -0.0900
      6 H6         -1.9507    0.6663   46.3960 H       1  ZINC000533131987    0.0900
      7 C7         -1.9799    2.7587   45.8844 C.3     1  ZINC000533131987    0.0800
      8 O8         -1.3572    2.3108   44.6786 O.3     1  ZINC000533131987   -0.5600
      9 C9         -0.7386    1.7544   47.8061 C.3     1  ZINC000533131987   -0.0900
     10 C10         0.4518    1.1501   47.1070 C.ar    1  ZINC000533131987    0.0000
     11 C11         1.1999    1.9138   46.2309 C.ar    1  ZINC000533131987   -0.1100
     12 C12         2.2920    1.3594   45.5896 C.ar    1  ZINC000533131987   -0.0800
     13 C13         2.6360    0.0415   45.8248 C.ar    1  ZINC000533131987   -0.1300
     14 C14         1.8882   -0.7222   46.7017 C.ar    1  ZINC000533131987   -0.0700
     15 C15         0.7990   -0.1667   47.3462 C.ar    1  ZINC000533131987   -0.1700
     16 C16        -0.0161   -0.9991   48.3021 C.3     1  ZINC000533131987    0.5100
     17 F17         0.3887   -2.3356   48.2187 F       1  ZINC000533131987   -0.1800
     18 F18         0.1774   -0.5339   49.6073 F       1  ZINC000533131987   -0.1700
     19 F19        -1.3710   -0.9005   47.9679 F       1  ZINC000533131987   -0.1800
     20 N20        -3.3594    3.7854   50.8061 N.am    1  ZINC000533131987   -0.6900
     21 C21        -3.6858    3.6448   52.1598 C.ar    1  ZINC000533131987    0.1600
     22 C22        -4.9906    3.8612   52.5859 C.ar    1  ZINC000533131987   -0.1000
     23 C23        -5.3182    3.7236   53.9220 C.ar    1  ZINC000533131987   -0.1000
     24 C24        -4.3517    3.3704   54.8413 C.ar    1  ZINC000533131987   -0.1000
     25 C25        -3.0378    3.1508   54.4231 C.ar    1  ZINC000533131987    0.0000
     26 C26        -2.0003    2.7718   55.4058 C.2     1  ZINC000533131987    0.2300
     27 N27        -0.7940    3.2824   55.4817 N.2     1  ZINC000533131987   -0.4700
     28 C28        -0.1416    2.6928   56.4949 C.2     1  ZINC000533131987   -0.0400
     29 C29        -0.9738    1.7956   57.0544 C.2     1  ZINC000533131987   -0.0700
     30 O30        -2.1365    1.8504   56.3752 O.3     1  ZINC000533131987   -0.2000
     31 C31        -2.7087    3.2840   53.0746 C.ar    1  ZINC000533131987   -0.1000
     32 H32        -2.8445    3.7216   48.3320 H       1  ZINC000533131987    0.4000
     33 H33        -3.3390    0.7984   48.3594 H       1  ZINC000533131987    0.0700
     34 H34        -4.1079    1.8286   47.1283 H       1  ZINC000533131987    0.0800
     35 H35        -3.0081    3.0536   45.6744 H       1  ZINC000533131987    0.0400
     36 H36        -1.4309    3.6126   46.2812 H       1  ZINC000533131987    0.0600
     37 H37        -1.7819    1.5388   44.2799 H       1  ZINC000533131987    0.3800
     38 H38        -0.5448    2.8077   48.0088 H       1  ZINC000533131987    0.0800
     39 H39        -0.9134    1.2297   48.7454 H       1  ZINC000533131987    0.0900
     40 H40         0.9311    2.9436   46.0472 H       1  ZINC000533131987    0.1300
     41 H41         2.8761    1.9560   44.9045 H       1  ZINC000533131987    0.1300
     42 H42         3.4887   -0.3918   45.3232 H       1  ZINC000533131987    0.1300
     43 H43         2.1568   -1.7520   46.8853 H       1  ZINC000533131987    0.1300
     44 H44        -3.0671    4.6450   50.4644 H       1  ZINC000533131987    0.4100
     45 H45        -5.7513    4.1382   51.8710 H       1  ZINC000533131987    0.1500
     46 H46        -6.3339    3.8934   54.2474 H       1  ZINC000533131987    0.1400
     47 H47        -4.6114    3.2643   55.8842 H       1  ZINC000533131987    0.1300
     48 H48         0.8714    2.9011   56.8062 H       1  ZINC000533131987    0.1900
     49 H49        -0.7525    1.1538   57.8942 H       1  ZINC000533131987    0.2200
     50 H50        -1.6941    3.1154   52.7453 H       1  ZINC000533131987    0.1400
@<TRIPOS>BOND
     1     1     2    2
     2     2     3   am
     3     2    20   am
     4     3     4    1
     5     3    32    1
     6     4     5    1
     7     4    33    1
     8     4    34    1
     9     5     6    1
    10     5     7    1
    11     5     9    1
    12     7     8    1
    13     7    35    1
    14     7    36    1
    15     8    37    1
    16     9    10    1
    17     9    38    1
    18     9    39    1
    19    10    15   ar
    20    10    11   ar
    21    11    12   ar
    22    11    40    1
    23    12    13   ar
    24    12    41    1
    25    13    14   ar
    26    13    42    1
    27    14    15   ar
    28    14    43    1
    29    15    16    1
    30    16    17    1
    31    16    18    1
    32    16    19    1
    33    20    21    1
    34    20    44    1
    35    21    31   ar
    36    21    22   ar
    37    22    23   ar
    38    22    45    1
    39    23    24   ar
    40    23    46    1
    41    24    25   ar
    42    24    47    1
    43    25    26    1
    44    25    31   ar
    45    26    30    1
    46    26    27    2
    47    27    28    1
    48    28    29    2
    49    28    48    1
    50    29    30    1
    51    29    49    1
    52    31    50    1
@<TRIPOS>SUBSTRUCTURE
     1 ZINC000533131987        1 TEMP              0 ****  ****    0 ROOT


##########                                Name:    ZINC000840464592
##########                DOCK_Rotatable_Bonds:                  10
##########                         Heavy_Atoms:                  26
##########                    Molecular_Weight:             360.497
##########                DOCK_Rotatable_Bonds:                  10
##########                       Formal_Charge:          -0.0399996
##########                     HBond_Acceptors:                   5
##########                        HBond_Donors:                   1
##########                         Heavy_Atoms:                  26
##########                          Grid_Score:          -32.540710
##########                     Grid_vdw_energy:          -30.604300
##########                      Grid_es_energy:           -1.936410
##########           Internal_energy_repulsive:           82.440369

@<TRIPOS>MOLECULE
ZINC000840464592
 58 59 1 0 0
SMALL
USER_CHARGES


@<TRIPOS>ATOM
      1 C1         -4.5881    3.8926   54.4349 C.3     1  ZINC000840464592   -0.1500
      2 C2         -4.5380    3.6929   52.9187 C.3     1  ZINC000840464592   -0.1300
      3 C3         -3.1364    4.0296   52.4060 C.3     1  ZINC000840464592   -0.1200
      4 C4         -3.1270    3.9793   50.8769 C.3     1  ZINC000840464592   -0.1200
      5 C5         -3.0520    2.5226   50.4150 C.3     1  ZINC000840464592   -0.1200
      6 C6         -1.6185    2.0111   50.5713 C.3     1  ZINC000840464592    0.0600
      7 O7         -1.3954    0.9332   49.6601 O.3     1  ZINC000840464592   -0.3600
      8 C8         -0.0427    0.8202   49.2135 C.3     1  ZINC000840464592    0.0800
      9 H9          0.4283    1.8031   49.2285 H       1  ZINC000840464592    0.0800
     10 C10         0.7230   -0.1263   50.1403 C.3     1  ZINC000840464592   -0.1800
     11 C11        -0.0212    0.2743   47.8090 C.2     1  ZINC000840464592    0.5200
     12 O12         0.2930   -0.8804   47.6119 O.2     1  ZINC000840464592   -0.5000
     13 N13        -0.3512    1.0693   46.7719 N.am    1  ZINC000840464592   -0.6000
     14 C14        -0.7290    2.4593   47.0140 C.3     1  ZINC000840464592    0.0900
     15 C15        -2.1683    2.7294   46.5901 C.3     1  ZINC000840464592   -0.1600
     16 C16        -2.3253    2.5076   45.0841 C.3     1  ZINC000840464592    0.0800
     17 N17        -2.6607    1.1007   44.8393 N.am    1  ZINC000840464592   -0.7200
     18 C18        -1.7374    0.1422   45.0159 C.2     1  ZINC000840464592    0.5100
     19 O19        -2.0290   -1.0252   44.8636 O.2     1  ZINC000840464592   -0.5200
     20 C20        -0.3230    0.5354   45.4061 C.3     1  ZINC000840464592    0.1400
     21 H21         0.3238   -0.3410   45.3679 H       1  ZINC000840464592    0.1300
     22 C22         0.1986    1.6007   44.4397 C.3     1  ZINC000840464592   -0.1000
     23 C23         1.5675    1.2062   43.9484 C.ar    1  ZINC000840464592   -0.0900
     24 C24         1.7040    0.5346   42.7479 C.ar    1  ZINC000840464592   -0.1100
     25 C25         2.9596    0.1727   42.2971 C.ar    1  ZINC000840464592   -0.1200
     26 C26         4.0789    0.4829   43.0467 C.ar    1  ZINC000840464592   -0.1200
     27 C27         3.9425    1.1553   44.2467 C.ar    1  ZINC000840464592   -0.1200
     28 C28         2.6872    1.5209   44.6953 C.ar    1  ZINC000840464592   -0.1100
     29 H29        -4.3538    4.9302   54.6726 H       1  ZINC000840464592    0.0500
     30 H30        -5.5867    3.6527   54.8001 H       1  ZINC000840464592    0.0500
     31 H31        -3.8596    3.2371   54.9118 H       1  ZINC000840464592    0.0500
     32 H32        -4.7724    2.6553   52.6810 H       1  ZINC000840464592    0.0600
     33 H33        -5.2666    4.3485   52.4417 H       1  ZINC000840464592    0.0600
     34 H34        -2.8585    5.0299   52.7383 H       1  ZINC000840464592    0.0600
     35 H35        -2.4225    3.3051   52.7978 H       1  ZINC000840464592    0.0600
     36 H36        -4.0392    4.4357   50.4927 H       1  ZINC000840464592    0.0600
     37 H37        -2.2615    4.5247   50.5007 H       1  ZINC000840464592    0.0600
     38 H38        -3.7230    1.9141   51.0215 H       1  ZINC000840464592    0.0700
     39 H39        -3.3489    2.4576   49.3683 H       1  ZINC000840464592    0.0700
     40 H40        -0.9191    2.8190   50.3566 H       1  ZINC000840464592    0.0500
     41 H41        -1.4669    1.6610   51.5924 H       1  ZINC000840464592    0.0500
     42 H42         1.7343   -0.2685   49.7593 H       1  ZINC000840464592    0.0800
     43 H43         0.7686    0.3032   51.1410 H       1  ZINC000840464592    0.0700
     44 H44         0.2114   -1.0879   50.1805 H       1  ZINC000840464592    0.0800
     45 H45        -0.6239    2.6771   48.0769 H       1  ZINC000840464592    0.1000
     46 H46        -0.0631    3.1128   46.4503 H       1  ZINC000840464592    0.0800
     47 H47        -2.8354    2.0544   47.1262 H       1  ZINC000840464592    0.0800
     48 H48        -2.4290    3.7596   46.8326 H       1  ZINC000840464592    0.1000
     49 H49        -3.1239    3.1443   44.7032 H       1  ZINC000840464592    0.0900
     50 H50        -1.3904    2.7526   44.5801 H       1  ZINC000840464592    0.1000
     51 H51        -3.5546    0.8614   44.5485 H       1  ZINC000840464592    0.4000
     52 H52        -0.4810    1.6863   43.5919 H       1  ZINC000840464592    0.0900
     53 H53         0.2597    2.5596   44.9545 H       1  ZINC000840464592    0.1000
     54 H54         0.8294    0.2922   42.1622 H       1  ZINC000840464592    0.1200
     55 H55         3.0661   -0.3526   41.3595 H       1  ZINC000840464592    0.1200
     56 H56         5.0599    0.1995   42.6949 H       1  ZINC000840464592    0.1200
     57 H57         4.8171    1.3973   44.8325 H       1  ZINC000840464592    0.1200
     58 H58         2.5807    2.0463   45.6329 H       1  ZINC000840464592    0.1200
@<TRIPOS>BOND
     1     1     2    1
     2     1    29    1
     3     1    30    1
     4     1    31    1
     5     2     3    1
     6     2    32    1
     7     2    33    1
     8     3     4    1
     9     3    34    1
    10     3    35    1
    11     4     5    1
    12     4    36    1
    13     4    37    1
    14     5     6    1
    15     5    38    1
    16     5    39    1
    17     6     7    1
    18     6    40    1
    19     6    41    1
    20     7     8    1
    21     8     9    1
    22     8    10    1
    23     8    11    1
    24    10    42    1
    25    10    43    1
    26    10    44    1
    27    11    12    2
    28    11    13   am
    29    13    20    1
    30    13    14    1
    31    14    15    1
    32    14    45    1
    33    14    46    1
    34    15    16    1
    35    15    47    1
    36    15    48    1
    37    16    17    1
    38    16    49    1
    39    16    50    1
    40    17    18   am
    41    17    51    1
    42    18    19    2
    43    18    20    1
    44    20    21    1
    45    20    22    1
    46    22    23    1
    47    22    52    1
    48    22    53    1
    49    23    28   ar
    50    23    24   ar
    51    24    25   ar
    52    24    54    1
    53    25    26   ar
    54    25    55    1
    55    26    27   ar
    56    26    56    1
    57    27    28   ar
    58    27    57    1
    59    28    58    1
@<TRIPOS>SUBSTRUCTURE
     1 ZINC000840464592        1 TEMP              0 ****  ****    0 ROOT


##########                                Name:    ZINC001362587626
##########                DOCK_Rotatable_Bonds:                   9
##########                         Heavy_Atoms:                  25
##########                    Molecular_Weight:             346.346
##########                DOCK_Rotatable_Bonds:                   9
##########                       Formal_Charge:        -4.02331e-07
##########                     HBond_Acceptors:                  10
##########                        HBond_Donors:                   2
##########                         Heavy_Atoms:                  25
##########                          Grid_Score:          -32.537914
##########                     Grid_vdw_energy:          -30.546288
##########                      Grid_es_energy:           -1.991626
##########           Internal_energy_repulsive:            7.284509

@<TRIPOS>MOLECULE
ZINC001362587626
 43 45 1 0 0
SMALL
USER_CHARGES


@<TRIPOS>ATOM
      1 C1         -3.3814    2.6809   51.8303 C.3     1  ZINC001362587626   -0.1600
      2 C2         -4.0585    2.1323   50.5728 C.3     1  ZINC001362587626    0.1300
      3 H3         -4.8901    2.7802   50.2960 H       1  ZINC001362587626    0.1200
      4 N4         -4.5592    0.7812   50.8377 N.am    1  ZINC001362587626   -0.7100
      5 C5         -5.6657    0.6076   51.5873 C.2     1  ZINC001362587626    0.5100
      6 O6         -6.2478    1.5699   52.0413 O.2     1  ZINC001362587626   -0.5000
      7 C7         -6.1798   -0.7824   51.8613 C.3     1  ZINC001362587626    0.1000
      8 N8         -7.6277   -0.7333   52.0792 N.pl3   1  ZINC001362587626   -0.3100
      9 C9         -8.2526   -0.4926   53.2468 C.2     1  ZINC001362587626    0.1600
     10 N10        -9.5393   -0.5386   53.0013 N.2     1  ZINC001362587626   -0.3000
     11 N11        -9.6964   -0.7942   51.7484 N.2     1  ZINC001362587626   -0.0700
     12 N12        -8.5433   -0.9069   51.1870 N.2     1  ZINC001362587626   -0.0700
     13 C13        -3.0606    2.0860   49.4446 C.2     1  ZINC001362587626    0.5100
     14 O14        -2.2583    2.9854   49.3072 O.2     1  ZINC001362587626   -0.5200
     15 N15        -3.0593    1.0452   48.5883 N.am    1  ZINC001362587626   -0.6600
     16 C16        -2.1315    1.0022   47.5394 C.ar    1  ZINC001362587626    0.1000
     17 C17        -2.5024    1.4150   46.2666 C.ar    1  ZINC001362587626   -0.1000
     18 C18        -1.5873    1.3729   45.2334 C.ar    1  ZINC001362587626   -0.1900
     19 C19        -0.2978    0.9178   45.4666 C.ar    1  ZINC001362587626    0.1200
     20 O20         0.6027    0.8761   44.4486 O.3     1  ZINC001362587626   -0.2800
     21 C21         1.2349    2.1067   44.0910 C.3     1  ZINC001362587626    0.0100
     22 C22         2.2477    2.6122   45.1357 C.3     1  ZINC001362587626    0.0200
     23 O23         3.2279    1.8784   44.3744 O.3     1  ZINC001362587626   -0.3700
     24 C24         2.4509    1.9341   43.1613 C.3     1  ZINC001362587626    0.0400
     25 C25         0.0737    0.5056   46.7380 C.ar    1  ZINC001362587626   -0.1300
     26 C26        -0.8389    0.5522   47.7734 C.ar    1  ZINC001362587626   -0.0800
     27 H27        -2.5497    2.0330   52.1073 H       1  ZINC001362587626    0.0700
     28 H28        -3.0088    3.6861   51.6333 H       1  ZINC001362587626    0.0800
     29 H29        -4.1032    2.7144   52.6464 H       1  ZINC001362587626    0.0800
     30 H30        -4.0944    0.0117   50.4736 H       1  ZINC001362587626    0.4100
     31 H31        -5.9624   -1.4249   51.0080 H       1  ZINC001362587626    0.1500
     32 H32        -5.6919   -1.1815   52.7504 H       1  ZINC001362587626    0.1400
     33 H33        -7.7847   -0.2996   54.2009 H       1  ZINC001362587626    0.2400
     34 H34        -3.7007    0.3260   48.6982 H       1  ZINC001362587626    0.4100
     35 H35        -3.5065    1.7687   46.0848 H       1  ZINC001362587626    0.1300
     36 H36        -1.8757    1.6939   44.2433 H       1  ZINC001362587626    0.1400
     37 H37         0.5290    2.8666   43.7559 H       1  ZINC001362587626    0.0900
     38 H38         2.3954    3.6920   45.1203 H       1  ZINC001362587626    0.1000
     39 H39         2.0817    2.2171   46.1379 H       1  ZINC001362587626    0.1000
     40 H40         2.4460    1.0013   42.5975 H       1  ZINC001362587626    0.1000
     41 H41         2.6606    2.8068   42.5428 H       1  ZINC001362587626    0.1000
     42 H42         1.0778    0.1514   46.9189 H       1  ZINC001362587626    0.1400
     43 H43        -0.5495    0.2318   48.7633 H       1  ZINC001362587626    0.1500
@<TRIPOS>BOND
     1     1     2    1
     2     1    27    1
     3     1    28    1
     4     1    29    1
     5     2     3    1
     6     2     4    1
     7     2    13    1
     8     4     5   am
     9     4    30    1
    10     5     6    2
    11     5     7    1
    12     7     8    1
    13     7    31    1
    14     7    32    1
    15     8    12    1
    16     8     9    1
    17     9    10    2
    18     9    33    1
    19    10    11    1
    20    11    12    2
    21    13    14    2
    22    13    15   am
    23    15    16    1
    24    15    34    1
    25    16    26   ar
    26    16    17   ar
    27    17    18   ar
    28    17    35    1
    29    18    19   ar
    30    18    36    1
    31    19    20    1
    32    19    25   ar
    33    20    21    1
    34    21    24    1
    35    21    22    1
    36    21    37    1
    37    22    23    1
    38    22    38    1
    39    22    39    1
    40    23    24    1
    41    24    40    1
    42    24    41    1
    43    25    26   ar
    44    25    42    1
    45    26    43    1
@<TRIPOS>SUBSTRUCTURE
     1 ZINC001362587626        1 TEMP              0 ****  ****    0 ROOT


##########                                Name:    ZINC000766421809
##########                DOCK_Rotatable_Bonds:                   7
##########                         Heavy_Atoms:                  26
##########                    Molecular_Weight:             358.372
##########                DOCK_Rotatable_Bonds:                   7
##########                       Formal_Charge:         4.61936e-07
##########                     HBond_Acceptors:                   8
##########                        HBond_Donors:                   0
##########                         Heavy_Atoms:                  26
##########                          Grid_Score:          -32.511929
##########                     Grid_vdw_energy:          -31.628799
##########                      Grid_es_energy:           -0.883128
##########           Internal_energy_repulsive:            7.930155

@<TRIPOS>MOLECULE
ZINC000766421809
 45 47 1 0 0
SMALL
USER_CHARGES


@<TRIPOS>ATOM
      1 C1         -0.0894   -1.7799   47.8896 C.3     1  ZINC000766421809   -0.0700
      2 C2         -0.7088   -0.7191   47.0166 C.2     1  ZINC000766421809    0.0700
      3 N3         -0.8965   -0.8023   45.7245 N.2     1  ZINC000766421809   -0.2900
      4 N4         -1.4967    0.3873   45.2920 N.pl3   1  ZINC000766421809   -0.3700
      5 C5         -1.8779    0.7090   43.9145 C.3     1  ZINC000766421809    0.1000
      6 C6         -1.6615    1.1846   46.3682 C.2     1  ZINC000766421809    0.0700
      7 C7         -2.2700    2.5632   46.3678 C.3     1  ZINC000766421809    0.1400
      8 O8         -3.1669    2.6967   47.5017 O.3     1  ZINC000766421809   -0.3400
      9 C9         -2.6148    3.0273   48.6798 C.2     1  ZINC000766421809    0.4700
     10 O10        -1.5715    3.6360   48.7084 O.2     1  ZINC000766421809   -0.5000
     11 C11        -3.2964    2.6393   49.9666 C.3     1  ZINC000766421809   -0.1100
     12 C12        -3.9245    3.8797   50.6052 C.3     1  ZINC000766421809   -0.0200
     13 C13        -4.6321    3.4866   51.8764 C.2     1  ZINC000766421809    0.1900
     14 N14        -5.4714    2.4921   52.0238 N.2     1  ZINC000766421809   -0.4700
     15 C15        -5.8483    2.5241   53.3221 C.2     1  ZINC000766421809    0.2200
     16 C16        -6.7950    1.5956   53.9879 C.ar    1  ZINC000766421809   -0.0300
     17 C17        -7.4009    0.5743   53.2589 C.ar    1  ZINC000766421809   -0.0500
     18 C18        -8.2803   -0.2873   53.8819 C.ar    1  ZINC000766421809   -0.1500
     19 C19        -8.5614   -0.1376   55.2303 C.ar    1  ZINC000766421809    0.1200
     20 F20        -9.4234   -0.9831   55.8364 F       1  ZINC000766421809   -0.1300
     21 C21        -7.9607    0.8764   55.9591 C.ar    1  ZINC000766421809   -0.1200
     22 C22        -8.2697    1.0337   57.4257 C.3     1  ZINC000766421809   -0.1200
     23 C23        -7.0763    1.7389   55.3453 C.ar    1  ZINC000766421809   -0.0600
     24 N24        -5.2215    3.5266   53.8812 N.2     1  ZINC000766421809   -0.3700
     25 O25        -4.5166    4.0839   53.0666 O.3     1  ZINC000766421809    0.0900
     26 C26        -1.1876    0.5220   47.4487 C.2     1  ZINC000766421809   -0.2400
     27 H27        -0.8680   -2.4484   48.2570 H       1  ZINC000766421809    0.0800
     28 H28         0.6353   -2.3508   47.3091 H       1  ZINC000766421809    0.0700
     29 H29         0.4125   -1.3079   48.7343 H       1  ZINC000766421809    0.0800
     30 H30        -2.9008    0.3787   43.7341 H       1  ZINC000766421809    0.0800
     31 H31        -1.8116    1.7863   43.7614 H       1  ZINC000766421809    0.0900
     32 H32        -1.2050    0.2017   43.2233 H       1  ZINC000766421809    0.0900
     33 H33        -1.4789    3.3095   46.4404 H       1  ZINC000766421809    0.0900
     34 H34        -2.8278    2.7139   45.4435 H       1  ZINC000766421809    0.0900
     35 H35        -4.0741    1.9044   49.7587 H       1  ZINC000766421809    0.1200
     36 H36        -2.5642    2.2099   50.6504 H       1  ZINC000766421809    0.1200
     37 H37        -3.1440    4.6055   50.8334 H       1  ZINC000766421809    0.1200
     38 H38        -4.6406    4.3219   49.9126 H       1  ZINC000766421809    0.1200
     39 H39        -7.1827    0.4574   52.2075 H       1  ZINC000766421809    0.1500
     40 H40        -8.7503   -1.0791   53.3176 H       1  ZINC000766421809    0.1500
     41 H41        -7.5646    0.4434   58.0109 H       1  ZINC000766421809    0.0800
     42 H42        -8.1836    2.0839   57.7047 H       1  ZINC000766421809    0.0800
     43 H43        -9.2844    0.6875   57.6223 H       1  ZINC000766421809    0.0700
     44 H44        -6.6086    2.5290   55.9141 H       1  ZINC000766421809    0.1400
     45 H45        -1.1755    0.8892   48.4643 H       1  ZINC000766421809    0.1500
@<TRIPOS>BOND
     1     1     2    1
     2     1    27    1
     3     1    28    1
     4     1    29    1
     5     2    26    1
     6     2     3    2
     7     3     4    1
     8     4     5    1
     9     4     6    1
    10     5    30    1
    11     5    31    1
    12     5    32    1
    13     6     7    1
    14     6    26    2
    15     7     8    1
    16     7    33    1
    17     7    34    1
    18     8     9    1
    19     9    10    2
    20     9    11    1
    21    11    12    1
    22    11    35    1
    23    11    36    1
    24    12    13    1
    25    12    37    1
    26    12    38    1
    27    13    25    1
    28    13    14    2
    29    14    15    1
    30    15    16    1
    31    15    24    2
    32    16    23   ar
    33    16    17   ar
    34    17    18   ar
    35    17    39    1
    36    18    19   ar
    37    18    40    1
    38    19    20    1
    39    19    21   ar
    40    21    22    1
    41    21    23   ar
    42    22    41    1
    43    22    42    1
    44    22    43    1
    45    23    44    1
    46    24    25    1
    47    26    45    1
@<TRIPOS>SUBSTRUCTURE
     1 ZINC000766421809        1 TEMP              0 ****  ****    0 ROOT


##########                                Name:    ZINC001300804061
##########                DOCK_Rotatable_Bonds:                   5
##########                         Heavy_Atoms:                  27
##########                    Molecular_Weight:              390.55
##########                DOCK_Rotatable_Bonds:                   5
##########                       Formal_Charge:                0.01
##########                     HBond_Acceptors:                   7
##########                        HBond_Donors:                   0
##########                         Heavy_Atoms:                  27
##########                          Grid_Score:          -32.510860
##########                     Grid_vdw_energy:          -30.911211
##########                      Grid_es_energy:           -1.599649
##########           Internal_energy_repulsive:           16.651623

@<TRIPOS>MOLECULE
ZINC001300804061
 57 60 1 0 0
SMALL
USER_CHARGES


@<TRIPOS>ATOM
      1 C1         -0.5296   -1.9660   47.4828 C.3     1  ZINC001300804061    0.0300
      2 O2         -1.4158   -1.1615   46.7020 O.3     1  ZINC001300804061   -0.3800
      3 C3         -1.2884    0.2418   46.9395 C.3     1  ZINC001300804061    0.1000
      4 H4         -0.2332    0.5029   47.0203 H       1  ZINC001300804061    0.0700
      5 C5         -2.0060    0.6070   48.2409 C.3     1  ZINC001300804061    0.0500
      6 N6         -1.8935    2.0523   48.4746 N.3     1  ZINC001300804061   -0.4600
      7 C7         -2.4187    2.3979   49.7081 C.2     1  ZINC001300804061    0.3600
      8 N8         -3.6518    2.7798   49.9498 N.2     1  ZINC001300804061   -0.3000
      9 N9         -3.8023    3.0238   51.2025 N.2     1  ZINC001300804061   -0.2500
     10 C10        -2.6713    2.8120   51.8393 C.2     1  ZINC001300804061    0.2600
     11 C11        -2.4345    2.9789   53.2818 C.2     1  ZINC001300804061    0.0400
     12 C12        -3.3561    3.3767   54.2032 C.2     1  ZINC001300804061   -0.1300
     13 C13        -2.7002    3.3983   55.4492 C.2     1  ZINC001300804061   -0.2100
     14 C14        -1.4256    3.0175   55.2321 C.2     1  ZINC001300804061    0.0100
     15 C15        -0.3543    2.8954   56.2850 C.3     1  ZINC001300804061   -0.0800
     16 O16        -1.2697    2.7593   53.9232 O.3     1  ZINC001300804061   -0.1700
     17 N17        -1.7520    2.3991   50.9003 N.pl3   1  ZINC001300804061   -0.4600
     18 C18        -0.3497    2.0436   51.1309 C.3     1  ZINC001300804061    0.1200
     19 C19         0.5153    3.3031   51.0528 C.3     1  ZINC001300804061   -0.1000
     20 H20         0.1929    4.0114   51.8161 H       1  ZINC001300804061    0.0900
     21 C21         0.3612    3.9389   49.6743 C.3     1  ZINC001300804061   -0.1200
     22 C22         0.9913    5.3282   49.6470 C.3     1  ZINC001300804061   -0.1200
     23 C23         2.5165    5.2116   49.7110 C.3     1  ZINC001300804061   -0.0800
     24 S24         2.9808    4.4467   51.2929 S.3     1  ZINC001300804061   -0.2600
     25 C25         1.9804    2.9292   51.2927 C.3     1  ZINC001300804061   -0.0700
     26 C26        -2.5350    2.8160   47.3969 C.3     1  ZINC001300804061    0.0600
     27 C27        -1.8331    2.5168   46.0703 C.3     1  ZINC001300804061   -0.1100
     28 C28        -1.9193    1.0161   45.7790 C.3     1  ZINC001300804061   -0.0900
     29 H29        -2.9644    0.7250   45.6734 H       1  ZINC001300804061    0.0800
     30 C30        -1.1680    0.7027   44.4835 C.3     1  ZINC001300804061   -0.1400
     31 H31         0.5017   -1.6940   47.2575 H       1  ZINC001300804061    0.0400
     32 H32        -0.7261   -1.7999   48.5419 H       1  ZINC001300804061    0.0400
     33 H33        -0.6883   -3.0176   47.2443 H       1  ZINC001300804061    0.0900
     34 H34        -3.0582    0.3323   48.1649 H       1  ZINC001300804061    0.0700
     35 H35        -1.5493    0.0682   49.0711 H       1  ZINC001300804061    0.0800
     36 H36        -4.3895    3.6274   54.0144 H       1  ZINC001300804061    0.1600
     37 H37        -3.1363    3.6690   56.3994 H       1  ZINC001300804061    0.1600
     38 H38        -0.3621    1.8858   56.6958 H       1  ZINC001300804061    0.0900
     39 H39         0.6190    3.0982   55.8382 H       1  ZINC001300804061    0.0800
     40 H40        -0.5449    3.6136   57.0824 H       1  ZINC001300804061    0.0900
     41 H41        -0.2467    1.5927   52.1180 H       1  ZINC001300804061    0.1100
     42 H42        -0.0255    1.3324   50.3710 H       1  ZINC001300804061    0.1000
     43 H43         0.8498    3.3084   48.9317 H       1  ZINC001300804061    0.0700
     44 H44        -0.6987    4.0207   49.4333 H       1  ZINC001300804061    0.0800
     45 H45         0.7056    5.8372   48.7264 H       1  ZINC001300804061    0.0800
     46 H46         0.6362    5.9036   50.5019 H       1  ZINC001300804061    0.0800
     47 H47         2.8702    4.5911   48.8876 H       1  ZINC001300804061    0.0800
     48 H48         2.9620    6.2040   49.6404 H       1  ZINC001300804061    0.1100
     49 H49         2.0746    2.4296   52.2568 H       1  ZINC001300804061    0.1000
     50 H50         2.3245    2.2651   50.4998 H       1  ZINC001300804061    0.0900
     51 H51        -3.5846    2.5310   47.3248 H       1  ZINC001300804061    0.0600
     52 H52        -2.4622    3.8818   47.6139 H       1  ZINC001300804061    0.0800
     53 H53        -2.3193    3.0718   45.2680 H       1  ZINC001300804061    0.0800
     54 H54        -0.7866    2.8144   46.1370 H       1  ZINC001300804061    0.0800
     55 H55        -0.1226    0.9920   44.5907 H       1  ZINC001300804061    0.0500
     56 H56        -1.2300   -0.3657   44.2769 H       1  ZINC001300804061    0.0600
     57 H57        -1.6162    1.2585   43.6599 H       1  ZINC001300804061    0.0600
@<TRIPOS>BOND
     1     1     2    1
     2     1    31    1
     3     1    32    1
     4     1    33    1
     5     2     3    1
     6     3     4    1
     7     3    28    1
     8     3     5    1
     9     5     6    1
    10     5    34    1
    11     5    35    1
    12     6     7    1
    13     6    26    1
    14     7    17    1
    15     7     8    2
    16     8     9    1
    17     9    10    2
    18    10    11    1
    19    10    17    1
    20    11    16    1
    21    11    12    2
    22    12    13    1
    23    12    36    1
    24    13    14    2
    25    13    37    1
    26    14    15    1
    27    14    16    1
    28    15    38    1
    29    15    39    1
    30    15    40    1
    31    17    18    1
    32    18    19    1
    33    18    41    1
    34    18    42    1
    35    19    20    1
    36    19    25    1
    37    19    21    1
    38    21    22    1
    39    21    43    1
    40    21    44    1
    41    22    23    1
    42    22    45    1
    43    22    46    1
    44    23    24    1
    45    23    47    1
    46    23    48    1
    47    24    25    1
    48    25    49    1
    49    25    50    1
    50    26    27    1
    51    26    51    1
    52    26    52    1
    53    27    28    1
    54    27    53    1
    55    27    54    1
    56    28    29    1
    57    28    30    1
    58    30    55    1
    59    30    56    1
    60    30    57    1
@<TRIPOS>SUBSTRUCTURE
     1 ZINC001300804061        1 TEMP              0 ****  ****    0 ROOT


##########                                Name:    ZINC000671418508
##########                DOCK_Rotatable_Bonds:                   9
##########                         Heavy_Atoms:                  28
##########                    Molecular_Weight:             405.884
##########                DOCK_Rotatable_Bonds:                   9
##########                       Formal_Charge:         -1.3411e-07
##########                     HBond_Acceptors:                   9
##########                        HBond_Donors:                   2
##########                         Heavy_Atoms:                  28
##########                          Grid_Score:          -32.501369
##########                     Grid_vdw_energy:          -31.954477
##########                      Grid_es_energy:           -0.546893
##########           Internal_energy_repulsive:           18.472834

@<TRIPOS>MOLECULE
ZINC000671418508
 52 54 1 0 0
SMALL
USER_CHARGES


@<TRIPOS>ATOM
      1 C1         -9.5580   -0.8764   51.9538 C.3     1  ZINC000671418508    0.1000
      2 N2         -8.1746   -0.4055   52.0579 N.pl3   1  ZINC000671418508   -0.3700
      3 C3         -7.7826    0.8734   52.2364 C.2     1  ZINC000671418508    0.0800
      4 C4         -6.4302    0.8880   52.2801 C.2     1  ZINC000671418508   -0.2700
      5 C5         -5.5622    2.1058   52.4662 C.3     1  ZINC000671418508    0.2000
      6 N6         -5.0003    2.5069   51.1741 N.am    1  ZINC000671418508   -0.6900
      7 C7         -3.8254    3.1656   51.1255 C.2     1  ZINC000671418508    0.5100
      8 O8         -3.2338    3.4277   52.1521 O.2     1  ZINC000671418508   -0.5100
      9 C9         -3.2513    3.5732   49.8073 C.2     1  ZINC000671418508    0.5100
     10 O10        -3.7469    4.4910   49.1872 O.2     1  ZINC000671418508   -0.5200
     11 N11        -2.1829    2.9212   49.3070 N.am    1  ZINC000671418508   -0.5800
     12 C12        -1.5706    1.8022   50.0392 C.3     1  ZINC000671418508    0.0800
     13 C13        -1.4436    0.6087   49.0866 C.3     1  ZINC000671418508    0.0400
     14 N14        -0.7240    1.0268   47.8761 N.3     1  ZINC000671418508   -0.5200
     15 C15        -0.4303   -0.1257   47.0138 C.3     1  ZINC000671418508    0.1300
     16 H16        -1.3628   -0.5384   46.6288 H       1  ZINC000671418508    0.0600
     17 C17         0.3044   -1.1952   47.8246 C.3     1  ZINC000671418508    0.0900
     18 O18        -0.5788   -2.2889   48.0809 O.3     1  ZINC000671418508   -0.5500
     19 C19         0.4366    0.3160   45.8631 C.ar    1  ZINC000671418508   -0.0800
     20 C20         1.7690    0.6161   46.0771 C.ar    1  ZINC000671418508   -0.0600
     21 C21         2.5646    1.0213   45.0220 C.ar    1  ZINC000671418508   -0.1200
     22 C22         2.0273    1.1265   43.7514 C.ar    1  ZINC000671418508   -0.0300
     23 Cl23        3.0260    1.6349   42.4257 Cl      1  ZINC000671418508   -0.0700
     24 C24         0.6938    0.8261   43.5377 C.ar    1  ZINC000671418508   -0.1200
     25 C25        -0.0994    0.4156   44.5926 C.ar    1  ZINC000671418508   -0.1100
     26 C26        -1.4704    2.0571   47.1417 C.3     1  ZINC000671418508    0.0400
     27 C27        -1.6022    3.3060   48.0117 C.3     1  ZINC000671418508    0.1100
     28 C28        -5.9804   -0.4270   52.1230 C.2     1  ZINC000671418508    0.0700
     29 N29        -7.0254   -1.2040   51.9957 N.2     1  ZINC000671418508   -0.2900
     30 H30        -9.9343   -1.1209   52.9472 H       1  ZINC000671418508    0.0800
     31 H31       -10.1760   -0.0937   51.5136 H       1  ZINC000671418508    0.0900
     32 H32        -9.5929   -1.7648   51.3232 H       1  ZINC000671418508    0.0900
     33 H33        -8.4319    1.7316   52.3276 H       1  ZINC000671418508    0.1800
     34 H34        -6.1621    2.9212   52.8704 H       1  ZINC000671418508    0.0800
     35 H35        -4.7527    1.8727   53.1579 H       1  ZINC000671418508    0.0800
     36 H36        -5.4737    2.2985   50.3535 H       1  ZINC000671418508    0.4100
     37 H37        -0.5822    2.0941   50.3943 H       1  ZINC000671418508    0.0800
     38 H38        -2.2011    1.5298   50.8856 H       1  ZINC000671418508    0.1400
     39 H39        -0.8925   -0.1925   49.5789 H       1  ZINC000671418508    0.0900
     40 H40        -2.4374    0.2531   48.8145 H       1  ZINC000671418508    0.0400
     41 H41         1.1674   -1.5494   47.2609 H       1  ZINC000671418508    0.0500
     42 H42         0.6384   -0.7685   48.7705 H       1  ZINC000671418508    0.0500
     43 H43        -0.1730   -3.0146   48.5748 H       1  ZINC000671418508    0.3800
     44 H44         2.1882    0.5343   47.0690 H       1  ZINC000671418508    0.1400
     45 H45         3.6053    1.2561   45.1895 H       1  ZINC000671418508    0.1300
     46 H46         0.2738    0.9084   42.5462 H       1  ZINC000671418508    0.1300
     47 H47        -1.1403    0.1806   44.4259 H       1  ZINC000671418508    0.1300
     48 H48        -0.9386    2.3063   46.2234 H       1  ZINC000671418508    0.0900
     49 H49        -2.4637    1.6814   46.8967 H       1  ZINC000671418508    0.0400
     50 H50        -2.2512    4.0294   47.5180 H       1  ZINC000671418508    0.1000
     51 H51        -0.6176    3.7446   48.1744 H       1  ZINC000671418508    0.0800
     52 H52        -4.9488   -0.7465   52.1134 H       1  ZINC000671418508    0.1900
@<TRIPOS>BOND
     1     1     2    1
     2     1    30    1
     3     1    31    1
     4     1    32    1
     5     2    29    1
     6     2     3    1
     7     3     4    2
     8     3    33    1
     9     4     5    1
    10     4    28    1
    11     5     6    1
    12     5    34    1
    13     5    35    1
    14     6     7   am
    15     6    36    1
    16     7     8    2
    17     7     9    1
    18     9    10    2
    19     9    11   am
    20    11    27    1
    21    11    12    1
    22    12    13    1
    23    12    37    1
    24    12    38    1
    25    13    14    1
    26    13    39    1
    27    13    40    1
    28    14    15    1
    29    14    26    1
    30    15    16    1
    31    15    17    1
    32    15    19    1
    33    17    18    1
    34    17    41    1
    35    17    42    1
    36    18    43    1
    37    19    25   ar
    38    19    20   ar
    39    20    21   ar
    40    20    44    1
    41    21    22   ar
    42    21    45    1
    43    22    23    1
    44    22    24   ar
    45    24    25   ar
    46    24    46    1
    47    25    47    1
    48    26    27    1
    49    26    48    1
    50    26    49    1
    51    27    50    1
    52    27    51    1
    53    28    29    2
    54    28    52    1
@<TRIPOS>SUBSTRUCTURE
     1 ZINC000671418508        1 TEMP              0 ****  ****    0 ROOT


##########                                Name:    ZINC000190927708
##########                DOCK_Rotatable_Bonds:                  10
##########                         Heavy_Atoms:                  26
##########                    Molecular_Weight:             358.437
##########                DOCK_Rotatable_Bonds:                  10
##########                       Formal_Charge:           0.0499998
##########                     HBond_Acceptors:                   6
##########                        HBond_Donors:                   1
##########                         Heavy_Atoms:                  26
##########                          Grid_Score:          -32.460403
##########                     Grid_vdw_energy:          -29.993979
##########                      Grid_es_energy:           -2.466424
##########           Internal_energy_repulsive:           25.734360

@<TRIPOS>MOLECULE
ZINC000190927708
 52 53 1 0 0
SMALL
USER_CHARGES


@<TRIPOS>ATOM
      1 C1        -13.8822   -4.7757   56.8127 C.3     1  ZINC000190927708   -0.1500
      2 C2        -13.0001   -3.7017   57.4527 C.3     1  ZINC000190927708   -0.1500
      3 C3        -11.7086   -3.5549   56.6457 C.3     1  ZINC000190927708    0.1000
      4 N4        -11.1153   -2.2415   56.9084 N.am    1  ZINC000190927708   -0.5900
      5 C5        -10.5881   -1.9700   58.1187 C.2     1  ZINC000190927708    0.5300
      6 O6        -10.6063   -2.8126   58.9908 O.2     1  ZINC000190927708   -0.5300
      7 C7         -9.9763   -0.6196   58.3884 C.3     1  ZINC000190927708   -0.0800
      8 C8         -9.5040   -0.5584   59.8181 C.2     1  ZINC000190927708   -0.1700
      9 C9        -10.2383    0.1063   60.7442 C.2     1  ZINC000190927708    0.0000
     10 C10        -9.7522    0.1466   62.1247 C.ar    1  ZINC000190927708   -0.1300
     11 C11       -10.4662    0.8155   63.1238 C.ar    1  ZINC000190927708   -0.0500
     12 C12        -9.9858    0.8337   64.4029 C.ar    1  ZINC000190927708   -0.1500
     13 C13        -8.7953    0.1943   64.7194 C.ar    1  ZINC000190927708   -0.0600
     14 C14        -8.0747   -0.4707   63.7506 C.ar    1  ZINC000190927708   -0.1600
     15 C15        -8.5441   -0.5032   62.4419 C.ar    1  ZINC000190927708    0.1900
     16 N16        -7.8442   -1.1612   61.4531 N.am    1  ZINC000190927708   -0.6300
     17 C17        -8.3019   -1.1981   60.1894 C.2     1  ZINC000190927708    0.5500
     18 O18        -7.6568   -1.7892   59.3408 O.2     1  ZINC000190927708   -0.5300
     19 C19       -11.0951   -1.2230   55.8555 C.3     1  ZINC000190927708    0.1500
     20 H20       -10.7767   -0.2699   56.2780 H       1  ZINC000190927708    0.1400
     21 C21       -12.4975   -1.0748   55.2622 C.3     1  ZINC000190927708   -0.1300
     22 C22       -13.2287    0.0727   55.9617 C.3     1  ZINC000190927708   -0.1500
     23 C23       -10.1329   -1.6389   54.7728 C.2     1  ZINC000190927708    0.4500
     24 O24       -10.0564   -2.7995   54.4458 O.2     1  ZINC000190927708   -0.5000
     25 O25        -9.3609   -0.7199   54.1717 O.3     1  ZINC000190927708   -0.3500
     26 C26        -8.7822   -1.0815   52.8900 C.3     1  ZINC000190927708    0.0600
     27 C27        -9.8169   -0.8652   51.7840 C.3     1  ZINC000190927708   -0.1500
     28 H28       -13.3489   -5.7263   56.8043 H       1  ZINC000190927708    0.0600
     29 H29       -14.8023   -4.8803   57.3876 H       1  ZINC000190927708    0.0600
     30 H30       -14.1237   -4.4856   55.7901 H       1  ZINC000190927708    0.0600
     31 H31       -13.5334   -2.7511   57.4610 H       1  ZINC000190927708    0.0800
     32 H32       -12.7586   -3.9918   58.4753 H       1  ZINC000190927708    0.0700
     33 H33       -11.0066   -4.3358   56.9382 H       1  ZINC000190927708    0.0900
     34 H34       -11.9320   -3.6467   55.5828 H       1  ZINC000190927708    0.0900
     35 H35        -9.1300   -0.4639   57.7192 H       1  ZINC000190927708    0.1100
     36 H36       -10.7215    0.1575   58.2183 H       1  ZINC000190927708    0.1200
     37 H37       -11.1612    0.5953   60.4696 H       1  ZINC000190927708    0.1400
     38 H38       -11.3932    1.3156   62.8856 H       1  ZINC000190927708    0.1400
     39 H39       -10.5373    1.3507   65.1744 H       1  ZINC000190927708    0.1300
     40 H40        -8.4295    0.2184   65.7353 H       1  ZINC000190927708    0.1300
     41 H41        -7.1493   -0.9651   64.0070 H       1  ZINC000190927708    0.1300
     42 H42        -7.0115   -1.6076   61.6731 H       1  ZINC000190927708    0.4200
     43 H43       -12.4203   -0.8604   54.1963 H       1  ZINC000190927708    0.0900
     44 H44       -13.0530   -2.0015   55.4070 H       1  ZINC000190927708    0.0800
     45 H45       -14.2278    0.1782   55.5390 H       1  ZINC000190927708    0.0600
     46 H46       -13.3058   -0.1417   57.0275 H       1  ZINC000190927708    0.0600
     47 H47       -12.6731    0.9993   55.8168 H       1  ZINC000190927708    0.0600
     48 H48        -7.9086   -0.4587   52.6972 H       1  ZINC000190927708    0.0700
     49 H49        -8.4840   -2.1298   52.9088 H       1  ZINC000190927708    0.0700
     50 H50       -10.6904   -1.4880   51.9767 H       1  ZINC000190927708    0.0700
     51 H51       -10.1151    0.1831   51.7652 H       1  ZINC000190927708    0.0700
     52 H52        -9.3823   -1.1366   50.8218 H       1  ZINC000190927708    0.0800
@<TRIPOS>BOND
     1     1     2    1
     2     1    28    1
     3     1    29    1
     4     1    30    1
     5     2     3    1
     6     2    31    1
     7     2    32    1
     8     3     4    1
     9     3    33    1
    10     3    34    1
    11     4     5   am
    12     4    19    1
    13     5     6    2
    14     5     7    1
    15     7     8    1
    16     7    35    1
    17     7    36    1
    18     8    17    1
    19     8     9    2
    20     9    10    1
    21     9    37    1
    22    10    15   ar
    23    10    11   ar
    24    11    12   ar
    25    11    38    1
    26    12    13   ar
    27    12    39    1
    28    13    14   ar
    29    13    40    1
    30    14    15   ar
    31    14    41    1
    32    15    16    1
    33    16    17   am
    34    16    42    1
    35    17    18    2
    36    19    20    1
    37    19    21    1
    38    19    23    1
    39    21    22    1
    40    21    43    1
    41    21    44    1
    42    22    45    1
    43    22    46    1
    44    22    47    1
    45    23    24    2
    46    23    25    1
    47    25    26    1
    48    26    27    1
    49    26    48    1
    50    26    49    1
    51    27    50    1
    52    27    51    1
    53    27    52    1
@<TRIPOS>SUBSTRUCTURE
     1 ZINC000190927708        1 TEMP              0 ****  ****    0 ROOT


##########                                Name:    ZINC000512239524
##########                DOCK_Rotatable_Bonds:                   9
##########                         Heavy_Atoms:                  31
##########                    Molecular_Weight:             424.518
##########                DOCK_Rotatable_Bonds:                   9
##########                       Formal_Charge:          0.00999919
##########                     HBond_Acceptors:                   7
##########                        HBond_Donors:                   1
##########                         Heavy_Atoms:                  31
##########                          Grid_Score:          -32.444115
##########                     Grid_vdw_energy:          -32.416416
##########                      Grid_es_energy:           -0.027700
##########           Internal_energy_repulsive:           32.155903

@<TRIPOS>MOLECULE
ZINC000512239524
 60 63 1 0 0
SMALL
USER_CHARGES


@<TRIPOS>ATOM
      1 C1         -3.6592    3.3223   49.3238 C.3     1  ZINC000512239524   -0.1600
      2 C2         -3.0690    2.4320   50.4193 C.3     1  ZINC000512239524    0.2000
      3 H3         -2.5842    3.0543   51.1713 H       1  ZINC000512239524    0.1100
      4 N4         -4.1404    1.6539   51.0461 N.am    1  ZINC000512239524   -0.7400
      5 C5         -4.9484    2.2314   51.9571 C.2     1  ZINC000512239524    0.7100
      6 O6         -4.7882    3.3984   52.2586 O.2     1  ZINC000512239524   -0.5800
      7 N7         -5.9340    1.5156   52.5337 N.am    1  ZINC000512239524   -0.6300
      8 C8         -6.8266    2.1329   53.5241 C.3     1  ZINC000512239524    0.1300
      9 C9         -8.2778    1.9108   53.0860 C.3     1  ZINC000512239524   -0.1100
     10 C10        -8.5178    0.4149   52.8698 C.3     1  ZINC000512239524   -0.1000
     11 C11        -9.9536    0.1893   52.4717 C.2     1  ZINC000512239524    0.5300
     12 O12       -10.2459    0.0638   51.3012 O.2     1  ZINC000512239524   -0.5300
     13 N13       -10.9130    0.1269   53.4163 N.am    1  ZINC000512239524   -0.5800
     14 C14       -10.5602    0.2802   54.8299 C.3     1  ZINC000512239524    0.1500
     15 C15       -10.5003   -1.0769   55.4826 C.ar    1  ZINC000512239524   -0.1100
     16 C16       -10.7455   -1.2037   56.8371 C.ar    1  ZINC000512239524   -0.0900
     17 C17       -10.6906   -2.4484   57.4358 C.ar    1  ZINC000512239524   -0.1200
     18 C18       -10.3908   -3.5664   56.6800 C.ar    1  ZINC000512239524   -0.1100
     19 C19       -10.1464   -3.4396   55.3254 C.ar    1  ZINC000512239524   -0.1200
     20 C20       -10.2057   -2.1955   54.7258 C.ar    1  ZINC000512239524   -0.1100
     21 C21       -12.3085   -0.0941   53.0293 C.3     1  ZINC000512239524    0.0700
     22 C22       -13.3237    0.9900   53.3966 C.3     1  ZINC000512239524   -0.1900
     23 C23       -12.8912    0.8087   51.9403 C.3     1  ZINC000512239524   -0.2000
     24 C24        -7.5949   -0.0965   51.7611 C.3     1  ZINC000512239524   -0.1400
     25 C25        -6.1400    0.1046   52.1796 C.3     1  ZINC000512239524    0.1100
     26 C26        -2.0560    1.4951   49.8134 C.ar    1  ZINC000512239524   -0.0800
     27 C27        -2.3280    0.8235   48.6320 C.ar    1  ZINC000512239524   -0.1400
     28 C28        -1.3746   -0.0278   48.1056 C.ar    1  ZINC000512239524    0.1000
     29 N29        -0.2180   -0.2051   48.7132 N.ar    1  ZINC000512239524   -0.4600
     30 C30         0.0771    0.4160   49.8384 C.ar    1  ZINC000512239524    0.0800
     31 C31        -0.8251    1.2881   50.4225 C.ar    1  ZINC000512239524    0.0600
     32 F32        -0.5168    1.9214   51.5754 F       1  ZINC000512239524   -0.1200
     33 H33        -4.3920    4.0000   49.7620 H       1  ZINC000512239524    0.0700
     34 H34        -2.8621    3.9013   48.8575 H       1  ZINC000512239524    0.0700
     35 H35        -4.1441    2.6999   48.5718 H       1  ZINC000512239524    0.0600
     36 H36        -4.2681    0.7228   50.8055 H       1  ZINC000512239524    0.3900
     37 H37        -6.6647    1.6730   54.4989 H       1  ZINC000512239524    0.0700
     38 H38        -6.6225    3.2020   53.5837 H       1  ZINC000512239524    0.1000
     39 H39        -8.9516    2.2794   53.8594 H       1  ZINC000512239524    0.0900
     40 H40        -8.4630    2.4474   52.1555 H       1  ZINC000512239524    0.0800
     41 H41        -8.3082   -0.1239   53.7938 H       1  ZINC000512239524    0.1000
     42 H42        -9.5876    0.7655   54.9110 H       1  ZINC000512239524    0.0900
     43 H43       -11.3135    0.8902   55.3283 H       1  ZINC000512239524    0.1000
     44 H44       -10.9797   -0.3303   57.4276 H       1  ZINC000512239524    0.1300
     45 H45       -10.8815   -2.5474   58.4942 H       1  ZINC000512239524    0.1200
     46 H46       -10.3472   -4.5388   57.1480 H       1  ZINC000512239524    0.1200
     47 H47        -9.9120   -4.3130   54.7349 H       1  ZINC000512239524    0.1200
     48 H48       -10.0148   -2.0965   53.6674 H       1  ZINC000512239524    0.1200
     49 H49       -12.6458   -1.1303   53.0577 H       1  ZINC000512239524    0.1300
     50 H50       -14.3291    0.6672   53.6669 H       1  ZINC000512239524    0.1100
     51 H51       -12.9532    1.8677   53.9261 H       1  ZINC000512239524    0.1000
     52 H52       -12.2362    1.5673   51.5117 H       1  ZINC000512239524    0.1100
     53 H53       -13.6121    0.3668   51.2524 H       1  ZINC000512239524    0.1000
     54 H54        -7.7829   -1.1567   51.5915 H       1  ZINC000512239524    0.0900
     55 H55        -7.7867    0.4590   50.8430 H       1  ZINC000512239524    0.0700
     56 H56        -5.4816   -0.1662   51.3542 H       1  ZINC000512239524    0.0800
     57 H57        -5.9193   -0.5194   53.0457 H       1  ZINC000512239524    0.0800
     58 H58        -3.2735    0.9633   48.1290 H       1  ZINC000512239524    0.1400
     59 H59        -1.5797   -0.5544   47.1852 H       1  ZINC000512239524    0.1700
     60 H60         1.0349    0.2451   50.3074 H       1  ZINC000512239524    0.1700
@<TRIPOS>BOND
     1     1     2    1
     2     1    33    1
     3     1    34    1
     4     1    35    1
     5     2     3    1
     6     2     4    1
     7     2    26    1
     8     4     5   am
     9     4    36    1
    10     5     6    2
    11     5     7   am
    12     7    25    1
    13     7     8    1
    14     8     9    1
    15     8    37    1
    16     8    38    1
    17     9    10    1
    18     9    39    1
    19     9    40    1
    20    10    11    1
    21    10    24    1
    22    10    41    1
    23    11    12    2
    24    11    13   am
    25    13    14    1
    26    13    21    1
    27    14    15    1
    28    14    42    1
    29    14    43    1
    30    15    20   ar
    31    15    16   ar
    32    16    17   ar
    33    16    44    1
    34    17    18   ar
    35    17    45    1
    36    18    19   ar
    37    18    46    1
    38    19    20   ar
    39    19    47    1
    40    20    48    1
    41    21    23    1
    42    21    22    1
    43    21    49    1
    44    22    23    1
    45    22    50    1
    46    22    51    1
    47    23    52    1
    48    23    53    1
    49    24    25    1
    50    24    54    1
    51    24    55    1
    52    25    56    1
    53    25    57    1
    54    26    31   ar
    55    26    27   ar
    56    27    28   ar
    57    27    58    1
    58    28    29   ar
    59    28    59    1
    60    29    30   ar
    61    30    31   ar
    62    30    60    1
    63    31    32    1
@<TRIPOS>SUBSTRUCTURE
     1 ZINC000512239524        1 TEMP              0 ****  ****    0 ROOT


##########                                Name:    ZINC000269356812
##########                DOCK_Rotatable_Bonds:                  10
##########                         Heavy_Atoms:                  25
##########                    Molecular_Weight:             387.431
##########                DOCK_Rotatable_Bonds:                  10
##########                       Formal_Charge:          0.00999978
##########                     HBond_Acceptors:                  10
##########                        HBond_Donors:                   3
##########                         Heavy_Atoms:                  25
##########                          Grid_Score:          -32.436222
##########                     Grid_vdw_energy:          -32.141518
##########                      Grid_es_energy:           -0.294705
##########           Internal_energy_repulsive:           11.908464

@<TRIPOS>MOLECULE
ZINC000269356812
 40 41 1 0 0
SMALL
USER_CHARGES


@<TRIPOS>ATOM
      1 C1         -0.8118    2.9146   48.6534 C.3     1  ZINC000269356812   -0.1400
      2 C2         -1.6863    1.7687   49.1663 C.3     1  ZINC000269356812    0.2000
      3 O3         -1.5601    1.6720   50.5864 O.3     1  ZINC000269356812   -0.5400
      4 C4         -3.1473    2.0394   48.8014 C.3     1  ZINC000269356812    0.0900
      5 N5         -4.0238    1.3386   49.7430 N.am    1  ZINC000269356812   -0.6900
      6 C6         -4.5953    2.0122   50.7608 C.2     1  ZINC000269356812    0.5100
      7 O7         -4.3826    3.1991   50.8982 O.2     1  ZINC000269356812   -0.5100
      8 C8         -5.4902    1.2982   51.7196 C.2     1  ZINC000269356812    0.5100
      9 O9         -5.4744    0.0857   51.7766 O.2     1  ZINC000269356812   -0.4900
     10 N10        -6.3155    1.9999   52.5214 N.am    1  ZINC000269356812   -0.6400
     11 C11        -7.1540    1.3308   53.4198 C.ar    1  ZINC000269356812    0.0900
     12 C12        -6.9172    1.4010   54.7924 C.ar    1  ZINC000269356812   -0.0600
     13 C13        -7.7713    0.7249   55.6434 C.ar    1  ZINC000269356812   -0.1200
     14 C14        -8.8317    0.0014   55.1062 C.ar    1  ZINC000269356812    0.1000
     15 S15        -9.9281   -0.8644   56.1799 S.3     1  ZINC000269356812   -0.0600
     16 C16       -10.6144   -2.1562   55.1073 C.3     1  ZINC000269356812    0.2900
     17 F17        -9.5713   -2.8298   54.4626 F       1  ZINC000269356812   -0.1700
     18 F18       -11.3479   -3.0630   55.8799 F       1  ZINC000269356812   -0.1700
     19 N19        -9.0265   -0.0432   53.7968 N.ar    1  ZINC000269356812   -0.4600
     20 C20        -8.2346    0.5942   52.9563 C.ar    1  ZINC000269356812    0.1100
     21 C21        -1.2418    0.4754   48.5332 C.2     1  ZINC000269356812   -0.2300
     22 C22        -1.6509    0.0187   47.3485 C.2     1  ZINC000269356812   -0.1100
     23 C23        -1.1046   -1.1960   46.9714 C.2     1  ZINC000269356812   -0.1400
     24 C24        -0.2518   -1.7257   47.8497 C.2     1  ZINC000269356812   -0.2000
     25 S25        -0.0983   -0.6589   49.2397 S.3     1  ZINC000269356812    0.1100
     26 H26         0.2291    2.7217   48.9134 H       1  ZINC000269356812    0.0800
     27 H27        -0.9080    2.9884   47.5702 H       1  ZINC000269356812    0.0800
     28 H28        -1.1332    3.8501   49.1113 H       1  ZINC000269356812    0.0700
     29 H29        -2.0713    0.9508   50.9785 H       1  ZINC000269356812    0.3800
     30 H30        -3.3419    3.1107   48.8522 H       1  ZINC000269356812    0.0900
     31 H31        -3.3412    1.6826   47.7898 H       1  ZINC000269356812    0.0900
     32 H32        -4.1929    0.3896   49.6339 H       1  ZINC000269356812    0.4200
     33 H33        -6.3281    2.9688   52.4757 H       1  ZINC000269356812    0.4300
     34 H34        -6.0858    1.9702   55.1814 H       1  ZINC000269356812    0.1600
     35 H35        -7.6172    0.7574   56.7119 H       1  ZINC000269356812    0.1500
     36 H36       -11.2679   -1.7011   54.3629 H       1  ZINC000269356812    0.1500
     37 H37        -8.4243    0.5348   51.8947 H       1  ZINC000269356812    0.1700
     38 H38        -2.3554    0.5556   46.7306 H       1  ZINC000269356812    0.1500
     39 H39        -1.3506   -1.6785   46.0369 H       1  ZINC000269356812    0.1400
     40 H40         0.2677   -2.6642   47.7247 H       1  ZINC000269356812    0.1700
@<TRIPOS>BOND
     1     1     2    1
     2     1    26    1
     3     1    27    1
     4     1    28    1
     5     2     3    1
     6     2     4    1
     7     2    21    1
     8     3    29    1
     9     4     5    1
    10     4    30    1
    11     4    31    1
    12     5     6   am
    13     5    32    1
    14     6     7    2
    15     6     8    1
    16     8     9    2
    17     8    10   am
    18    10    11    1
    19    10    33    1
    20    11    20   ar
    21    11    12   ar
    22    12    13   ar
    23    12    34    1
    24    13    14   ar
    25    13    35    1
    26    14    15    1
    27    14    19   ar
    28    15    16    1
    29    16    17    1
    30    16    18    1
    31    16    36    1
    32    19    20   ar
    33    20    37    1
    34    21    25    1
    35    21    22    2
    36    22    23    1
    37    22    38    1
    38    23    24    2
    39    23    39    1
    40    24    25    1
    41    24    40    1
@<TRIPOS>SUBSTRUCTURE
     1 ZINC000269356812        1 TEMP              0 ****  ****    0 ROOT


##########                                Name:    ZINC001347442583
##########                DOCK_Rotatable_Bonds:                   9
##########                         Heavy_Atoms:                  27
##########                    Molecular_Weight:             370.492
##########                DOCK_Rotatable_Bonds:                   9
##########                       Formal_Charge:          -0.0400009
##########                     HBond_Acceptors:                   5
##########                        HBond_Donors:                   1
##########                         Heavy_Atoms:                  27
##########                          Grid_Score:          -32.433918
##########                     Grid_vdw_energy:          -32.286789
##########                      Grid_es_energy:           -0.147131
##########           Internal_energy_repulsive:           12.601159

@<TRIPOS>MOLECULE
ZINC001347442583
 57 60 1 0 0
SMALL
USER_CHARGES


@<TRIPOS>ATOM
      1 O1        -10.2635   -4.0996   58.3294 O.2     1  ZINC001347442583   -0.5400
      2 C2        -11.0480   -3.2914   58.7792 C.2     1  ZINC001347442583    0.5400
      3 C3        -10.7619   -2.6155   60.0954 C.3     1  ZINC001347442583   -0.1400
      4 C4        -10.1922   -1.2190   59.8383 C.3     1  ZINC001347442583   -0.1000
      5 C5        -10.1431   -0.4383   61.1532 C.3     1  ZINC001347442583   -0.1100
      6 C6         -9.0481   -1.0190   62.0504 C.3     1  ZINC001347442583   -0.0800
      7 C7         -8.7827   -0.0745   63.1944 C.ar    1  ZINC001347442583   -0.0800
      8 C8         -9.8102    0.6939   63.7090 C.ar    1  ZINC001347442583   -0.1200
      9 C9         -9.5666    1.5602   64.7583 C.ar    1  ZINC001347442583   -0.1200
     10 C10        -8.2957    1.6579   65.2933 C.ar    1  ZINC001347442583   -0.1300
     11 C11        -7.2685    0.8888   64.7794 C.ar    1  ZINC001347442583   -0.1200
     12 C12        -7.5130    0.0192   63.7328 C.ar    1  ZINC001347442583   -0.1200
     13 N13       -12.1729   -2.9936   58.0992 N.am    1  ZINC001347442583   -0.6300
     14 C14       -13.2917   -2.0432   58.4190 C.3     1  ZINC001347442583    0.1200
     15 H15       -13.1978   -1.4971   59.3576 H       1  ZINC001347442583    0.1200
     16 C16       -14.5263   -2.9881   58.3114 C.3     1  ZINC001347442583   -0.1300
     17 C17       -14.1193   -3.9872   57.2005 C.3     1  ZINC001347442583   -0.1300
     18 C18       -12.6910   -3.5051   56.7850 C.3     1  ZINC001347442583    0.1200
     19 H19       -12.0697   -4.2493   56.2869 H       1  ZINC001347442583    0.1200
     20 C20       -12.9243   -2.1841   55.9917 C.3     1  ZINC001347442583    0.1300
     21 H21       -13.7246   -2.3103   55.2625 H       1  ZINC001347442583    0.1100
     22 N22       -11.6895   -1.7539   55.3309 N.am    1  ZINC001347442583   -0.7200
     23 C23       -11.7472   -0.9349   54.2622 C.2     1  ZINC001347442583    0.5300
     24 O24       -12.8213   -0.5528   53.8483 O.2     1  ZINC001347442583   -0.5300
     25 C25       -10.4771   -0.4939   53.5814 C.3     1  ZINC001347442583   -0.1500
     26 H26       -10.1971    0.5104   53.8995 H       1  ZINC001347442583    0.1100
     27 C27        -9.3262   -1.5006   53.8531 C.3     1  ZINC001347442583   -0.1400
     28 C28        -8.4560   -1.3014   52.5866 C.3     1  ZINC001347442583    0.0500
     29 O29        -9.3919   -1.0796   51.5198 O.3     1  ZINC001347442583   -0.3800
     30 C30       -10.6239   -0.5631   52.0462 C.3     1  ZINC001347442583    0.0700
     31 C31       -13.3165   -1.1667   57.1306 C.3     1  ZINC001347442583   -0.1400
     32 H32       -11.6851   -2.5313   60.6689 H       1  ZINC001347442583    0.0900
     33 H33       -10.0378   -3.2056   60.6571 H       1  ZINC001347442583    0.0900
     34 H34        -9.1854   -1.3068   59.4300 H       1  ZINC001347442583    0.0700
     35 H35       -10.8281   -0.6925   59.1267 H       1  ZINC001347442583    0.0700
     36 H36        -9.9253    0.6094   60.9459 H       1  ZINC001347442583    0.0600
     37 H37       -11.1058   -0.5164   61.6583 H       1  ZINC001347442583    0.0600
     38 H38        -9.3729   -1.9826   62.4427 H       1  ZINC001347442583    0.0700
     39 H39        -8.1352   -1.1518   61.4698 H       1  ZINC001347442583    0.0700
     40 H40       -10.8030    0.6177   63.2910 H       1  ZINC001347442583    0.1200
     41 H41       -10.3692    2.1611   65.1598 H       1  ZINC001347442583    0.1200
     42 H42        -8.1053    2.3352   66.1127 H       1  ZINC001347442583    0.1200
     43 H43        -6.2755    0.9652   65.1972 H       1  ZINC001347442583    0.1200
     44 H44        -6.7104   -0.5817   63.3313 H       1  ZINC001347442583    0.1200
     45 H45       -14.6943   -3.5094   59.2539 H       1  ZINC001347442583    0.0700
     46 H46       -15.4141   -2.4281   58.0177 H       1  ZINC001347442583    0.0800
     47 H47       -14.0855   -5.0040   57.5920 H       1  ZINC001347442583    0.0800
     48 H48       -14.8052   -3.9226   56.3558 H       1  ZINC001347442583    0.0800
     49 H49       -10.8304   -2.0586   55.6628 H       1  ZINC001347442583    0.4000
     50 H50        -8.7748   -1.2330   54.7546 H       1  ZINC001347442583    0.0900
     51 H51        -9.7033   -2.5214   53.9140 H       1  ZINC001347442583    0.0900
     52 H52        -7.8064   -0.4343   52.7065 H       1  ZINC001347442583    0.0700
     53 H53        -7.8633   -2.1949   52.3904 H       1  ZINC001347442583    0.0900
     54 H54       -11.4457   -1.2301   51.7857 H       1  ZINC001347442583    0.0700
     55 H55       -10.8108    0.4315   51.6415 H       1  ZINC001347442583    0.0800
     56 H56       -14.3238   -0.7817   56.9715 H       1  ZINC001347442583    0.0900
     57 H57       -12.5959   -0.3505   57.1813 H       1  ZINC001347442583    0.0800
@<TRIPOS>BOND
     1     1     2    2
     2     2     3    1
     3     2    13   am
     4     3     4    1
     5     3    32    1
     6     3    33    1
     7     4     5    1
     8     4    34    1
     9     4    35    1
    10     5     6    1
    11     5    36    1
    12     5    37    1
    13     6     7    1
    14     6    38    1
    15     6    39    1
    16     7    12   ar
    17     7     8   ar
    18     8     9   ar
    19     8    40    1
    20     9    10   ar
    21     9    41    1
    22    10    11   ar
    23    10    42    1
    24    11    12   ar
    25    11    43    1
    26    12    44    1
    27    13    18    1
    28    13    14    1
    29    14    15    1
    30    14    31    1
    31    14    16    1
    32    16    17    1
    33    16    45    1
    34    16    46    1
    35    17    18    1
    36    17    47    1
    37    17    48    1
    38    18    19    1
    39    18    20    1
    40    20    21    1
    41    20    22    1
    42    20    31    1
    43    22    23   am
    44    22    49    1
    45    23    24    2
    46    23    25    1
    47    25    26    1
    48    25    30    1
    49    25    27    1
    50    27    28    1
    51    27    50    1
    52    27    51    1
    53    28    29    1
    54    28    52    1
    55    28    53    1
    56    29    30    1
    57    30    54    1
    58    30    55    1
    59    31    56    1
    60    31    57    1
@<TRIPOS>SUBSTRUCTURE
     1 ZINC001347442583        1 TEMP              0 ****  ****    0 ROOT


##########                                Name:    ZINC000002634904
##########                DOCK_Rotatable_Bonds:                   7
##########                         Heavy_Atoms:                  31
##########                    Molecular_Weight:             423.498
##########                DOCK_Rotatable_Bonds:                   7
##########                       Formal_Charge:        -7.45058e-08
##########                     HBond_Acceptors:                   7
##########                        HBond_Donors:                   1
##########                         Heavy_Atoms:                  31
##########                          Grid_Score:          -32.407593
##########                     Grid_vdw_energy:          -30.575102
##########                      Grid_es_energy:           -1.832491
##########           Internal_energy_repulsive:            5.614409

@<TRIPOS>MOLECULE
ZINC000002634904
 48 51 1 0 0
SMALL
USER_CHARGES


@<TRIPOS>ATOM
      1 N1        -15.6447    1.6170   64.9805 N.1     1  ZINC000002634904   -0.4100
      2 C2        -15.0909    1.0192   64.1890 C.1     1  ZINC000002634904    0.2500
      3 C3        -14.3928    0.2656   63.1913 C.ar    1  ZINC000002634904   -0.0400
      4 C4        -14.8440   -1.0075   62.8317 C.ar    1  ZINC000002634904   -0.0500
      5 C5        -14.1702   -1.7293   61.8720 C.ar    1  ZINC000002634904   -0.1400
      6 C6        -13.0417   -1.1928   61.2606 C.ar    1  ZINC000002634904    0.1700
      7 N7        -12.3615   -1.9271   60.2883 N.am    1  ZINC000002634904   -0.6700
      8 C8        -12.8238   -1.9605   59.0229 C.2     1  ZINC000002634904    0.5400
      9 O9        -13.8312   -1.3524   58.7290 O.2     1  ZINC000002634904   -0.5000
     10 C10       -12.0891   -2.7536   57.9729 C.3     1  ZINC000002634904   -0.1700
     11 S11       -13.0172   -2.7035   56.4197 S.3     1  ZINC000002634904    0.1300
     12 C12       -11.7643   -2.1072   55.3337 C.ar    1  ZINC000002634904    0.2100
     13 N13       -10.5394   -2.6157   55.4072 N.ar    1  ZINC000002634904   -0.2900
     14 N14        -9.5932   -2.2109   54.6344 N.ar    1  ZINC000002634904   -0.1600
     15 C15        -9.8201   -1.2622   53.7321 C.ar    1  ZINC000002634904    0.0600
     16 C16        -8.7322   -0.7952   52.8412 C.ar    1  ZINC000002634904   -0.0500
     17 C17        -7.7213    0.0248   53.3414 C.ar    1  ZINC000002634904   -0.0800
     18 C18        -6.7107    0.4566   52.5068 C.ar    1  ZINC000002634904   -0.1200
     19 C19        -6.6995    0.0778   51.1764 C.ar    1  ZINC000002634904   -0.1000
     20 C20        -7.6996   -0.7354   50.6744 C.ar    1  ZINC000002634904   -0.1200
     21 C21        -8.7120   -1.1787   51.5007 C.ar    1  ZINC000002634904   -0.0800
     22 C22       -11.1122   -0.7075   53.6356 C.ar    1  ZINC000002634904    0.2300
     23 C23       -11.4093    0.3524   52.6440 C.ar    1  ZINC000002634904   -0.0700
     24 C24       -12.3350    0.1202   51.6272 C.ar    1  ZINC000002634904   -0.0700
     25 C25       -12.6080    1.1113   50.7068 C.ar    1  ZINC000002634904   -0.1200
     26 C26       -11.9654    2.3335   50.7913 C.ar    1  ZINC000002634904   -0.0900
     27 C27       -11.0458    2.5697   51.7974 C.ar    1  ZINC000002634904   -0.1200
     28 C28       -10.7688    1.5883   52.7271 C.ar    1  ZINC000002634904   -0.0700
     29 N29       -12.0607   -1.1609   54.4518 N.ar    1  ZINC000002634904   -0.4400
     30 C30       -12.5900    0.0741   61.6156 C.ar    1  ZINC000002634904   -0.1200
     31 C31       -13.2619    0.8038   62.5707 C.ar    1  ZINC000002634904   -0.0500
     32 H32       -15.7198   -1.4247   63.3064 H       1  ZINC000002634904    0.1400
     33 H33       -14.5180   -2.7131   61.5939 H       1  ZINC000002634904    0.1400
     34 H34       -11.5557   -2.4134   60.5233 H       1  ZINC000002634904    0.4200
     35 H35       -11.0995   -2.3233   57.8189 H       1  ZINC000002634904    0.1300
     36 H36       -11.9884   -3.7875   58.3028 H       1  ZINC000002634904    0.1300
     37 H37        -7.7294    0.3217   54.3797 H       1  ZINC000002634904    0.1300
     38 H38        -5.9273    1.0916   52.8931 H       1  ZINC000002634904    0.1300
     39 H39        -5.9068    0.4188   50.5268 H       1  ZINC000002634904    0.1300
     40 H40        -7.6856   -1.0278   49.6348 H       1  ZINC000002634904    0.1300
     41 H41        -9.4921   -1.8139   51.1078 H       1  ZINC000002634904    0.1200
     42 H42       -12.8370   -0.8338   51.5601 H       1  ZINC000002634904    0.1300
     43 H43       -13.3245    0.9325   49.9188 H       1  ZINC000002634904    0.1300
     44 H44       -12.1824    3.1063   50.0687 H       1  ZINC000002634904    0.1300
     45 H45       -10.5470    3.5257   51.8581 H       1  ZINC000002634904    0.1300
     46 H46       -10.0506    1.7739   53.5121 H       1  ZINC000002634904    0.1300
     47 H47       -11.7138    0.4875   61.1385 H       1  ZINC000002634904    0.1500
     48 H48       -12.9110    1.7874   62.8456 H       1  ZINC000002634904    0.1400
@<TRIPOS>BOND
     1     1     2    3
     2     2     3    1
     3     3    31   ar
     4     3     4   ar
     5     4     5   ar
     6     4    32    1
     7     5     6   ar
     8     5    33    1
     9     6     7    1
    10     6    30   ar
    11     7     8   am
    12     7    34    1
    13     8     9    2
    14     8    10    1
    15    10    11    1
    16    10    35    1
    17    10    36    1
    18    11    12    1
    19    12    29   ar
    20    12    13   ar
    21    13    14   ar
    22    14    15   ar
    23    15    16    1
    24    15    22   ar
    25    16    21   ar
    26    16    17   ar
    27    17    18   ar
    28    17    37    1
    29    18    19   ar
    30    18    38    1
    31    19    20   ar
    32    19    39    1
    33    20    21   ar
    34    20    40    1
    35    21    41    1
    36    22    23    1
    37    22    29   ar
    38    23    28   ar
    39    23    24   ar
    40    24    25   ar
    41    24    42    1
    42    25    26   ar
    43    25    43    1
    44    26    27   ar
    45    26    44    1
    46    27    28   ar
    47    27    45    1
    48    28    46    1
    49    30    31   ar
    50    30    47    1
    51    31    48    1
@<TRIPOS>SUBSTRUCTURE
     1 ZINC000002634904        1 TEMP              0 ****  ****    0 ROOT


##########                                Name:    ZINC001143596311
##########                DOCK_Rotatable_Bonds:                   9
##########                         Heavy_Atoms:                  21
##########                    Molecular_Weight:             335.811
##########                DOCK_Rotatable_Bonds:                   9
##########                       Formal_Charge:          0.00999959
##########                     HBond_Acceptors:                   9
##########                        HBond_Donors:                   3
##########                         Heavy_Atoms:                  21
##########                          Grid_Score:          -32.363007
##########                     Grid_vdw_energy:          -30.856636
##########                      Grid_es_energy:           -1.506372
##########           Internal_energy_repulsive:           12.082158

@<TRIPOS>MOLECULE
ZINC001143596311
 39 39 1 0 0
SMALL
USER_CHARGES


@<TRIPOS>ATOM
      1 C1         -6.2273   -0.3260   51.2183 C.3     1  ZINC001143596311    0.0400
      2 O2         -5.5402    0.6536   51.9996 O.3     1  ZINC001143596311   -0.2600
      3 N3         -6.3556    1.8183   52.3447 N.3     1  ZINC001143596311   -0.3700
      4 C4         -7.5761    1.4145   53.0556 C.3     1  ZINC001143596311    0.0000
      5 C5         -5.5828    2.7868   53.1338 C.3     1  ZINC001143596311    0.0400
      6 C6         -4.6978    3.6149   52.2001 C.3     1  ZINC001143596311   -0.1300
      7 C7         -3.2721    3.0600   52.2235 C.3     1  ZINC001143596311    0.1200
      8 N8         -3.0617    2.2046   51.0530 N.am    1  ZINC001143596311   -0.7200
      9 C9         -2.5545    2.7271   49.9189 C.2     1  ZINC001143596311    0.5600
     10 O10        -2.2702    3.9078   49.8677 O.2     1  ZINC001143596311   -0.5200
     11 C11        -2.3439    1.8644   48.7375 C.ar    1  ZINC001143596311   -0.1500
     12 C12        -3.0280    2.1248   47.5489 C.ar    1  ZINC001143596311   -0.0200
     13 C13        -2.8273    1.3163   46.4497 C.ar    1  ZINC001143596311   -0.1300
     14 C14        -1.9494    0.2478   46.5237 C.ar    1  ZINC001143596311    0.0700
     15 Cl15       -1.7019   -0.7655   45.1360 Cl      1  ZINC001143596311   -0.0200
     16 C16        -1.2675   -0.0155   47.7006 C.ar    1  ZINC001143596311   -0.6800
     17 S17        -0.1522   -1.3770   47.7849 S.o2    1  ZINC001143596311    2.7000
     18 N18         0.4211   -1.4456   49.3369 N.am    1  ZINC001143596311   -1.2500
     19 O19        -0.9336   -2.5482   47.5935 O.2     1  ZINC001143596311   -0.9400
     20 O20         0.9563   -1.0391   46.9623 O.2     1  ZINC001143596311   -0.9500
     21 C21        -1.4553    0.7894   48.8041 C.ar    1  ZINC001143596311    0.0500
     22 H22        -7.0920   -0.6914   51.7723 H       1  ZINC001143596311    0.0400
     23 H23        -6.5589    0.1232   50.2822 H       1  ZINC001143596311    0.0500
     24 H24        -5.5551   -1.1570   51.0045 H       1  ZINC001143596311    0.0900
     25 H25        -7.3060    0.8925   53.9736 H       1  ZINC001143596311    0.0400
     26 H26        -8.1636    2.2994   53.3001 H       1  ZINC001143596311    0.0900
     27 H27        -8.1641    0.7520   52.4204 H       1  ZINC001143596311    0.0800
     28 H28        -6.2655    3.4476   53.6679 H       1  ZINC001143596311    0.0500
     29 H29        -4.9571    2.2547   53.8504 H       1  ZINC001143596311    0.0900
     30 H30        -5.0914    3.5624   51.1850 H       1  ZINC001143596311    0.0800
     31 H31        -4.6892    4.6527   52.5332 H       1  ZINC001143596311    0.0800
     32 H32        -2.5605    3.8855   52.2029 H       1  ZINC001143596311    0.0800
     33 H33        -3.1245    2.4758   53.1318 H       1  ZINC001143596311    0.0800
     34 H34        -3.2875    1.2621   51.0942 H       1  ZINC001143596311    0.4000
     35 H35        -3.7134    2.9574   47.4902 H       1  ZINC001143596311    0.1500
     36 H36        -3.3560    1.5166   45.5296 H       1  ZINC001143596311    0.1600
     37 H37         0.9067   -0.6925   49.7084 H       1  ZINC001143596311    0.4200
     38 H38         0.2712   -2.2389   49.8747 H       1  ZINC001143596311    0.4200
     39 H39        -0.9232    0.5832   49.7211 H       1  ZINC001143596311    0.1700
@<TRIPOS>BOND
     1     1     2    1
     2     1    22    1
     3     1    23    1
     4     1    24    1
     5     2     3    1
     6     3     4    1
     7     3     5    1
     8     4    25    1
     9     4    26    1
    10     4    27    1
    11     5     6    1
    12     5    28    1
    13     5    29    1
    14     6     7    1
    15     6    30    1
    16     6    31    1
    17     7     8    1
    18     7    32    1
    19     7    33    1
    20     8     9   am
    21     8    34    1
    22     9    10    2
    23     9    11    1
    24    11    21   ar
    25    11    12   ar
    26    12    13   ar
    27    12    35    1
    28    13    14   ar
    29    13    36    1
    30    14    15    1
    31    14    16   ar
    32    16    17    1
    33    16    21   ar
    34    17    18   am
    35    17    19    2
    36    17    20    2
    37    18    37    1
    38    18    38    1
    39    21    39    1
@<TRIPOS>SUBSTRUCTURE
     1 ZINC001143596311        1 TEMP              0 ****  ****    0 ROOT


##########                                Name:    ZINC001625935330
##########                DOCK_Rotatable_Bonds:                   5
##########                         Heavy_Atoms:                  25
##########                    Molecular_Weight:             327.385
##########                DOCK_Rotatable_Bonds:                   5
##########                       Formal_Charge:           0.0199995
##########                     HBond_Acceptors:                   4
##########                        HBond_Donors:                   1
##########                         Heavy_Atoms:                  25
##########                          Grid_Score:          -32.361824
##########                     Grid_vdw_energy:          -32.178192
##########                      Grid_es_energy:           -0.183631
##########           Internal_energy_repulsive:           15.456676

@<TRIPOS>MOLECULE
ZINC001625935330
 42 44 1 0 0
SMALL
USER_CHARGES


@<TRIPOS>ATOM
      1 C1         -3.6868    3.4985   49.7702 C.3     1  ZINC001625935330   -0.1600
      2 C2         -3.2645    2.2135   50.4854 C.3     1  ZINC001625935330    0.1800
      3 H3         -2.8536    2.4607   51.4642 H       1  ZINC001625935330    0.1000
      4 N4         -4.4298    1.3412   50.6510 N.am    1  ZINC001625935330   -0.7100
      5 C5         -5.1975    1.4446   51.7539 C.2     1  ZINC001625935330    0.5800
      6 O6         -4.9224    2.2602   52.6116 O.2     1  ZINC001625935330   -0.5300
      7 C7         -6.3772    0.5636   51.9206 C.ar    1  ZINC001625935330    0.0800
      8 C8         -6.9868    0.4579   53.1660 C.ar    1  ZINC001625935330   -0.1000
      9 C9         -8.0989   -0.3772   53.3054 C.ar    1  ZINC001625935330    0.0000
     10 C10        -8.7829   -0.5219   54.6141 C.ar    1  ZINC001625935330   -0.0600
     11 C11        -8.3458    0.2099   55.7164 C.ar    1  ZINC001625935330   -0.1000
     12 C12        -8.9861    0.0717   56.9312 C.ar    1  ZINC001625935330   -0.1200
     13 C13       -10.0600   -0.7913   57.0556 C.ar    1  ZINC001625935330   -0.1100
     14 C14       -10.4982   -1.5203   55.9646 C.ar    1  ZINC001625935330   -0.1200
     15 C15        -9.8686   -1.3859   54.7439 C.ar    1  ZINC001625935330   -0.1000
     16 C16        -8.5496   -1.0717   52.1803 C.ar    1  ZINC001625935330   -0.1400
     17 C17        -7.8862   -0.9108   50.9768 C.ar    1  ZINC001625935330    0.1100
     18 N18        -6.8451   -0.1128   50.8779 N.ar    1  ZINC001625935330   -0.4600
     19 C19        -2.2179    1.5033   49.6660 C.ar    1  ZINC001625935330   -0.0900
     20 C20        -0.9444    1.3265   50.1764 C.ar    1  ZINC001625935330   -0.0800
     21 C21         0.0226    0.6755   49.4307 C.ar    1  ZINC001625935330   -0.1100
     22 C22        -0.2780    0.1977   48.1723 C.ar    1  ZINC001625935330   -0.0700
     23 C23        -1.5617    0.3723   47.6510 C.ar    1  ZINC001625935330   -0.0200
     24 C24        -1.8810   -0.1212   46.3452 C.1     1  ZINC001625935330    0.2500
     25 N25        -2.1343   -0.5127   45.3092 N.1     1  ZINC001625935330   -0.4100
     26 C26        -2.5339    1.0258   48.4107 C.ar    1  ZINC001625935330   -0.0600
     27 H27        -2.8198    4.1475   49.6470 H       1  ZINC001625935330    0.0700
     28 H28        -4.0977    3.2513   48.7915 H       1  ZINC001625935330    0.0600
     29 H29        -4.4438    4.0121   50.3629 H       1  ZINC001625935330    0.0700
     30 H30        -4.6489    0.6894   49.9670 H       1  ZINC001625935330    0.4100
     31 H31        -6.6070    1.0118   54.0117 H       1  ZINC001625935330    0.1500
     32 H32        -7.5072    0.8837   55.6204 H       1  ZINC001625935330    0.1300
     33 H33        -8.6479    0.6380   57.7863 H       1  ZINC001625935330    0.1300
     34 H34       -10.5579   -0.8967   58.0082 H       1  ZINC001625935330    0.1300
     35 H35       -11.3369   -2.1928   56.0675 H       1  ZINC001625935330    0.1300
     36 H36       -10.2118   -1.9552   53.8926 H       1  ZINC001625935330    0.1300
     37 H37        -9.4056   -1.7266   52.2491 H       1  ZINC001625935330    0.1400
     38 H38        -8.2307   -1.4459   50.1042 H       1  ZINC001625935330    0.1700
     39 H39        -0.7037    1.6987   51.1613 H       1  ZINC001625935330    0.1300
     40 H40         1.0151    0.5415   49.8350 H       1  ZINC001625935330    0.1400
     41 H41         0.4777   -0.3098   47.5912 H       1  ZINC001625935330    0.1400
     42 H42        -3.5286    1.1641   48.0135 H       1  ZINC001625935330    0.1400
@<TRIPOS>BOND
     1     1     2    1
     2     1    27    1
     3     1    28    1
     4     1    29    1
     5     2     3    1
     6     2     4    1
     7     2    19    1
     8     4     5   am
     9     4    30    1
    10     5     6    2
    11     5     7    1
    12     7    18   ar
    13     7     8   ar
    14     8     9   ar
    15     8    31    1
    16     9    10    1
    17     9    16   ar
    18    10    15   ar
    19    10    11   ar
    20    11    12   ar
    21    11    32    1
    22    12    13   ar
    23    12    33    1
    24    13    14   ar
    25    13    34    1
    26    14    15   ar
    27    14    35    1
    28    15    36    1
    29    16    17   ar
    30    16    37    1
    31    17    18   ar
    32    17    38    1
    33    19    26   ar
    34    19    20   ar
    35    20    21   ar
    36    20    39    1
    37    21    22   ar
    38    21    40    1
    39    22    23   ar
    40    22    41    1
    41    23    24    1
    42    23    26   ar
    43    24    25    3
    44    26    42    1
@<TRIPOS>SUBSTRUCTURE
     1 ZINC001625935330        1 TEMP              0 ****  ****    0 ROOT


##########                                Name:    ZINC000599797189
##########                DOCK_Rotatable_Bonds:                  13
##########                         Heavy_Atoms:                  23
##########                    Molecular_Weight:             329.313
##########                DOCK_Rotatable_Bonds:                  13
##########                       Formal_Charge:          0.00999949
##########                     HBond_Acceptors:                  11
##########                        HBond_Donors:                   3
##########                         Heavy_Atoms:                  23
##########                          Grid_Score:          -32.336559
##########                     Grid_vdw_energy:          -30.415218
##########                      Grid_es_energy:           -1.921341
##########           Internal_energy_repulsive:           15.975960

@<TRIPOS>MOLECULE
ZINC000599797189
 42 42 1 0 0
SMALL
USER_CHARGES


@<TRIPOS>ATOM
      1 C1         -2.8349    2.0955   49.9207 C.3     1  ZINC000599797189   -0.1500
      2 C2         -4.0459    2.0607   50.8552 C.3     1  ZINC000599797189    0.0600
      3 O3         -4.6915    0.7634   50.7628 O.3     1  ZINC000599797189   -0.3600
      4 C4         -5.6933    0.5187   51.6219 C.2     1  ZINC000599797189    0.4500
      5 O5         -6.2019    1.4291   52.2320 O.2     1  ZINC000599797189   -0.4800
      6 C6         -6.1838   -0.8917   51.8254 C.3     1  ZINC000599797189    0.1500
      7 N7         -7.6209   -0.8727   52.1093 N.pl3   1  ZINC000599797189   -0.3800
      8 C8         -8.2016   -0.7023   53.3090 C.2     1  ZINC000599797189    0.2800
      9 N9         -9.4992   -0.7474   53.1451 N.2     1  ZINC000599797189   -0.5100
     10 C10        -9.7854   -0.9452   51.8549 C.2     1  ZINC000599797189    0.4700
     11 N11       -11.0707   -1.0470   51.3123 N.am    1  ZINC000599797189   -0.6400
     12 C12       -11.8992    0.0157   51.3381 C.2     1  ZINC000599797189    0.7100
     13 O13       -11.5301    1.0624   51.8345 O.2     1  ZINC000599797189   -0.5300
     14 N14       -13.1369   -0.0820   50.8138 N.am    1  ZINC000599797189   -0.7300
     15 C15       -14.0369    1.0737   50.8402 C.3     1  ZINC000599797189    0.1100
     16 C16       -14.1987    1.6268   49.4229 C.3     1  ZINC000599797189    0.1100
     17 H17       -14.9047    2.4571   49.4353 H       1  ZINC000599797189    0.1200
     18 O18       -12.9329    2.0848   48.9431 O.3     1  ZINC000599797189   -0.5400
     19 C19       -14.7244    0.5239   48.5019 C.3     1  ZINC000599797189   -0.1500
     20 C20       -15.5683    1.1374   47.4145 C.2     1  ZINC000599797189    0.4600
     21 O21       -16.7193    1.4307   47.6360 O.2     1  ZINC000599797189   -0.4900
     22 O22       -15.0413    1.3580   46.2000 O.3     1  ZINC000599797189   -0.3600
     23 C23       -13.7548    0.7461   45.9186 C.3     1  ZINC000599797189    0.0400
     24 N24        -8.6633   -1.0231   51.1803 N.2     1  ZINC000599797189   -0.3200
     25 H25        -2.3503    3.0694   49.9901 H       1  ZINC000599797189    0.0800
     26 H26        -2.1295    1.3171   50.2111 H       1  ZINC000599797189    0.0700
     27 H27        -3.1624    1.9248   48.8952 H       1  ZINC000599797189    0.0700
     28 H28        -3.7185    2.2314   51.8808 H       1  ZINC000599797189    0.0700
     29 H29        -4.7514    2.8392   50.5647 H       1  ZINC000599797189    0.0700
     30 H30        -5.9993   -1.4743   50.9229 H       1  ZINC000599797189    0.1500
     31 H31        -5.6538   -1.3431   52.6640 H       1  ZINC000599797189    0.1300
     32 H32        -7.6865   -0.5539   54.2465 H       1  ZINC000599797189    0.2300
     33 H33       -11.3656   -1.8824   50.9173 H       1  ZINC000599797189    0.4200
     34 H34       -13.4319   -0.9174   50.4188 H       1  ZINC000599797189    0.4000
     35 H35       -15.0101    0.7676   51.2241 H       1  ZINC000599797189    0.0800
     36 H36       -13.6182    1.8456   51.4859 H       1  ZINC000599797189    0.0800
     37 H37       -12.9888    2.6372   48.1514 H       1  ZINC000599797189    0.3800
     38 H38       -13.8842   -0.0067   48.0541 H       1  ZINC000599797189    0.1200
     39 H39       -15.3288   -0.1749   49.0803 H       1  ZINC000599797189    0.1200
     40 H40       -13.0147    1.1128   46.6299 H       1  ZINC000599797189    0.0600
     41 H41       -13.8400   -0.3368   46.0085 H       1  ZINC000599797189    0.0600
     42 H42       -13.4440    1.0033   44.9059 H       1  ZINC000599797189    0.1000
@<TRIPOS>BOND
     1     1     2    1
     2     1    25    1
     3     1    26    1
     4     1    27    1
     5     2     3    1
     6     2    28    1
     7     2    29    1
     8     3     4    1
     9     4     5    2
    10     4     6    1
    11     6     7    1
    12     6    30    1
    13     6    31    1
    14     7    24    1
    15     7     8    1
    16     8     9    2
    17     8    32    1
    18     9    10    1
    19    10    11    1
    20    10    24    2
    21    11    12   am
    22    11    33    1
    23    12    13    2
    24    12    14   am
    25    14    15    1
    26    14    34    1
    27    15    16    1
    28    15    35    1
    29    15    36    1
    30    16    17    1
    31    16    18    1
    32    16    19    1
    33    18    37    1
    34    19    20    1
    35    19    38    1
    36    19    39    1
    37    20    21    2
    38    20    22    1
    39    22    23    1
    40    23    40    1
    41    23    41    1
    42    23    42    1
@<TRIPOS>SUBSTRUCTURE
     1 ZINC000599797189        1 TEMP              0 ****  ****    0 ROOT


##########                                Name:    ZINC001141221454
##########                DOCK_Rotatable_Bonds:                   7
##########                         Heavy_Atoms:                  27
##########                    Molecular_Weight:             369.439
##########                DOCK_Rotatable_Bonds:                   7
##########                       Formal_Charge:          0.00999935
##########                     HBond_Acceptors:                   6
##########                        HBond_Donors:                   1
##########                         Heavy_Atoms:                  27
##########                          Grid_Score:          -32.291679
##########                     Grid_vdw_energy:          -31.618677
##########                      Grid_es_energy:           -0.673003
##########           Internal_energy_repulsive:           15.471948

@<TRIPOS>MOLECULE
ZINC001141221454
 51 54 1 0 0
SMALL
USER_CHARGES


@<TRIPOS>ATOM
      1 C1         -9.1457    1.1124   55.5081 C.3     1  ZINC001141221454    0.0300
      2 O2         -8.0393    1.9595   55.1912 O.3     1  ZINC001141221454   -0.3100
      3 C3         -7.2695    1.5984   54.1303 C.ar    1  ZINC001141221454    0.0900
      4 C4         -7.4609    0.3686   53.5202 C.ar    1  ZINC001141221454   -0.1800
      5 C5         -6.6775    0.0036   52.4414 C.ar    1  ZINC001141221454   -0.0900
      6 C6         -5.7031    0.8633   51.9701 C.ar    1  ZINC001141221454   -0.1200
      7 C7         -5.5085    2.0911   52.5762 C.ar    1  ZINC001141221454   -0.0800
      8 C8         -4.4450    3.0257   52.0600 C.3     1  ZINC001141221454    0.0900
      9 N9         -3.4373    2.2578   51.3164 N.3     1  ZINC001141221454   -0.5100
     10 C10        -3.4128    2.6570   49.8853 C.3     1  ZINC001141221454    0.0300
     11 C11        -2.0141    2.1880   49.4068 C.3     1  ZINC001141221454   -0.0700
     12 C12        -1.1255    2.4666   50.6331 C.3     1  ZINC001141221454   -0.1000
     13 C13         0.0933    3.3748   50.5339 C.3     1  ZINC001141221454   -0.1400
     14 C14         0.2705    1.8687   50.7482 C.3     1  ZINC001141221454   -0.1800
     15 H15         0.5957    1.5351   51.7336 H       1  ZINC001141221454    0.1300
     16 C16         0.7784    1.0551   49.5859 C.2     1  ZINC001141221454    0.5500
     17 O17         1.6824    1.4793   48.8976 O.2     1  ZINC001141221454   -0.5300
     18 N18         0.2280   -0.1441   49.3112 N.am    1  ZINC001141221454   -0.7300
     19 C19         0.7205   -0.9344   48.1802 C.3     1  ZINC001141221454    0.1700
     20 C20        -0.0752   -0.5954   46.9461 C.ar    1  ZINC001141221454   -0.1600
     21 C21         0.3643    0.3904   46.0763 C.ar    1  ZINC001141221454   -0.0600
     22 C22        -0.4000    0.6683   44.9531 C.ar    1  ZINC001141221454   -0.1700
     23 C23        -1.5661   -0.0416   44.7397 C.ar    1  ZINC001141221454    0.1100
     24 N24        -1.9539   -0.9731   45.5891 N.ar    1  ZINC001141221454   -0.4800
     25 C25        -1.2498   -1.2675   46.6643 C.ar    1  ZINC001141221454    0.1200
     26 C26        -2.0763    2.5262   51.8350 C.3     1  ZINC001141221454    0.0700
     27 C27        -6.2932    2.4638   53.6522 C.ar    1  ZINC001141221454    0.0900
     28 F28        -6.1034    3.6631   54.2446 F       1  ZINC001141221454   -0.1300
     29 H29        -9.6748    1.5138   56.3725 H       1  ZINC001141221454    0.1000
     30 H30        -9.8241    1.0667   54.6560 H       1  ZINC001141221454    0.0600
     31 H31        -8.7824    0.1107   55.7373 H       1  ZINC001141221454    0.0600
     32 H32        -8.2215   -0.3043   53.8875 H       1  ZINC001141221454    0.1400
     33 H33        -6.8266   -0.9548   51.9664 H       1  ZINC001141221454    0.1300
     34 H34        -5.0925    0.5756   51.1271 H       1  ZINC001141221454    0.1300
     35 H35        -4.8995    3.7640   51.3995 H       1  ZINC001141221454    0.0600
     36 H36        -3.9689    3.5330   52.8990 H       1  ZINC001141221454    0.0900
     37 H37        -4.1999    2.1464   49.3305 H       1  ZINC001141221454    0.0800
     38 H38        -3.5105    3.7381   49.7862 H       1  ZINC001141221454    0.0500
     39 H39        -2.0233    1.1240   49.1701 H       1  ZINC001141221454    0.0900
     40 H40        -1.6830    2.7730   48.5488 H       1  ZINC001141221454    0.0700
     41 H41         0.3433    3.7765   49.5520 H       1  ZINC001141221454    0.1000
     42 H42         0.3019    4.0316   51.3784 H       1  ZINC001141221454    0.1100
     43 H43        -0.4942   -0.4840   49.8624 H       1  ZINC001141221454    0.4000
     44 H44         1.7724   -0.7064   48.0083 H       1  ZINC001141221454    0.0800
     45 H45         0.6105   -1.9956   48.4032 H       1  ZINC001141221454    0.0800
     46 H46         1.2802    0.9295   46.2689 H       1  ZINC001141221454    0.1400
     47 H47        -0.0879    1.4302   44.2541 H       1  ZINC001141221454    0.1400
     48 H48        -2.1673    0.1691   43.8676 H       1  ZINC001141221454    0.1600
     49 H49        -1.5992   -2.0366   47.3371 H       1  ZINC001141221454    0.1600
     50 H50        -2.0395    3.5156   52.2909 H       1  ZINC001141221454    0.0500
     51 H51        -1.7999    1.7675   52.5671 H       1  ZINC001141221454    0.0900
@<TRIPOS>BOND
     1     1     2    1
     2     1    29    1
     3     1    30    1
     4     1    31    1
     5     2     3    1
     6     3    27   ar
     7     3     4   ar
     8     4     5   ar
     9     4    32    1
    10     5     6   ar
    11     5    33    1
    12     6     7   ar
    13     6    34    1
    14     7     8    1
    15     7    27   ar
    16     8     9    1
    17     8    35    1
    18     8    36    1
    19     9    26    1
    20     9    10    1
    21    10    11    1
    22    10    37    1
    23    10    38    1
    24    11    12    1
    25    11    39    1
    26    11    40    1
    27    12    14    1
    28    12    13    1
    29    12    26    1
    30    13    14    1
    31    13    41    1
    32    13    42    1
    33    14    15    1
    34    14    16    1
    35    16    17    2
    36    16    18   am
    37    18    19    1
    38    18    43    1
    39    19    20    1
    40    19    44    1
    41    19    45    1
    42    20    25   ar
    43    20    21   ar
    44    21    22   ar
    45    21    46    1
    46    22    23   ar
    47    22    47    1
    48    23    24   ar
    49    23    48    1
    50    24    25   ar
    51    25    49    1
    52    26    50    1
    53    26    51    1
    54    27    28    1
@<TRIPOS>SUBSTRUCTURE
     1 ZINC001141221454        1 TEMP              0 ****  ****    0 ROOT


##########                                Name:    ZINC000426805817
##########                DOCK_Rotatable_Bonds:                   6
##########                         Heavy_Atoms:                  26
##########                    Molecular_Weight:             412.286
##########                DOCK_Rotatable_Bonds:                   6
##########                       Formal_Charge:          -0.0100001
##########                     HBond_Acceptors:                   5
##########                        HBond_Donors:                   4
##########                         Heavy_Atoms:                  26
##########                          Grid_Score:          -32.264351
##########                     Grid_vdw_energy:          -28.881752
##########                      Grid_es_energy:           -3.382598
##########           Internal_energy_repulsive:            6.646994

@<TRIPOS>MOLECULE
ZINC000426805817
 44 47 1 0 0
SMALL
USER_CHARGES


@<TRIPOS>ATOM
      1 O1        -15.4055   -1.2243   63.3230 O.co2   1  ZINC000426805817   -0.6300
      2 C2        -14.5994   -1.7215   62.5551 C.2     1  ZINC000426805817    0.5000
      3 O3        -14.4220   -2.9277   62.5546 O.co2   1  ZINC000426805817   -0.6800
      4 C4        -13.8269   -0.8458   61.6026 C.3     1  ZINC000426805817   -0.0500
      5 H5        -12.9012   -1.3464   61.3183 H       1  ZINC000426805817    0.1300
      6 C6        -14.6697   -0.5839   60.3528 C.3     1  ZINC000426805817   -0.0500
      7 C7        -15.0249   -1.8960   59.7023 C.2     1  ZINC000426805817   -0.1900
      8 C8        -16.0940   -2.6599   59.9770 C.2     1  ZINC000426805817    0.0500
      9 N9        -16.0846   -3.7769   59.1869 N.pl3   1  ZINC000426805817   -0.5900
     10 C10       -14.9807   -3.7588   58.3632 C.ar    1  ZINC000426805817    0.1100
     11 C11       -14.4999   -4.6278   57.3898 C.ar    1  ZINC000426805817   -0.1200
     12 C12       -13.3356   -4.3297   56.7167 C.ar    1  ZINC000426805817   -0.0700
     13 C13       -12.6322   -3.1661   56.9994 C.ar    1  ZINC000426805817   -0.1100
     14 Br14      -11.0365   -2.7805   56.0607 Br      1  ZINC000426805817   -0.0400
     15 C15       -13.0905   -2.2912   57.9591 C.ar    1  ZINC000426805817   -0.0400
     16 C16       -14.2722   -2.5767   58.6458 C.ar    1  ZINC000426805817   -0.1000
     17 N17       -13.5117    0.4310   62.2572 N.4     1  ZINC000426805817   -0.4800
     18 H18       -14.3185    1.0358   62.2208 H       1  ZINC000426805817    0.4000
     19 H19       -13.2609    0.2625   63.2200 H       1  ZINC000426805817    0.4200
     20 C20       -12.3870    1.0726   61.5634 C.3     1  ZINC000426805817    0.0400
     21 C21       -11.0884    0.5517   62.1231 C.ar    1  ZINC000426805817   -0.1600
     22 C22       -10.3350   -0.3662   61.3991 C.ar    1  ZINC000426805817    0.1100
     23 N23       -10.5025   -0.9753   60.1758 N.pl3   1  ZINC000426805817   -0.5900
     24 C24        -9.4490   -1.8116   59.9243 C.2     1  ZINC000426805817    0.0600
     25 C25        -8.5822   -1.7766   60.9487 C.2     1  ZINC000426805817   -0.2000
     26 C26        -9.1247   -0.8414   61.9370 C.ar    1  ZINC000426805817   -0.1100
     27 C27        -8.6928   -0.3903   63.1855 C.ar    1  ZINC000426805817   -0.0400
     28 C28        -9.4489    0.5118   63.8797 C.ar    1  ZINC000426805817   -0.1500
     29 C29       -10.6408    0.9875   63.3511 C.ar    1  ZINC000426805817   -0.0700
     30 H30       -15.5825   -0.0586   60.6337 H       1  ZINC000426805817    0.1200
     31 H31       -14.1001    0.0266   59.6521 H       1  ZINC000426805817    0.0900
     32 H32       -16.8495   -2.4272   60.7128 H       1  ZINC000426805817    0.1700
     33 H33       -16.7555   -4.4773   59.2043 H       1  ZINC000426805817    0.4200
     34 H34       -15.0387   -5.5358   57.1621 H       1  ZINC000426805817    0.1300
     35 H35       -12.9659   -5.0079   55.9619 H       1  ZINC000426805817    0.1400
     36 H36       -12.5411   -1.3871   58.1766 H       1  ZINC000426805817    0.1400
     37 H37       -12.4404    0.8464   60.4985 H       1  ZINC000426805817    0.1500
     38 H38       -12.4385    2.1517   61.7086 H       1  ZINC000426805817    0.1300
     39 H39       -11.2554   -0.8331   59.5809 H       1  ZINC000426805817    0.4300
     40 H40        -9.3324   -2.4112   59.0336 H       1  ZINC000426805817    0.1800
     41 H41        -7.6599   -2.3328   61.0290 H       1  ZINC000426805817    0.1500
     42 H42        -7.7645   -0.7533   63.6014 H       1  ZINC000426805817    0.1300
     43 H43        -9.1143    0.8604   64.8456 H       1  ZINC000426805817    0.1300
     44 H44       -11.2274    1.7003   63.9119 H       1  ZINC000426805817    0.1300
@<TRIPOS>BOND
     1     1     2   ar
     2     2     3   ar
     3     2     4    1
     4     4     5    1
     5     4     6    1
     6     4    17    1
     7     6     7    1
     8     6    30    1
     9     6    31    1
    10     7    16    1
    11     7     8    2
    12     8     9    1
    13     8    32    1
    14     9    10    1
    15     9    33    1
    16    10    16   ar
    17    10    11   ar
    18    11    12   ar
    19    11    34    1
    20    12    13   ar
    21    12    35    1
    22    13    14    1
    23    13    15   ar
    24    15    16   ar
    25    15    36    1
    26    17    18    1
    27    17    19    1
    28    17    20    1
    29    20    21    1
    30    20    37    1
    31    20    38    1
    32    21    29   ar
    33    21    22   ar
    34    22    26   ar
    35    22    23    1
    36    23    24    1
    37    23    39    1
    38    24    25    2
    39    24    40    1
    40    25    26    1
    41    25    41    1
    42    26    27   ar
    43    27    28   ar
    44    27    42    1
    45    28    29   ar
    46    28    43    1
    47    29    44    1
@<TRIPOS>SUBSTRUCTURE
     1 ZINC000426805817        1 TEMP              0 ****  ****    0 ROOT


##########                                Name:    ZINC000195331548
##########                DOCK_Rotatable_Bonds:                   7
##########                         Heavy_Atoms:                  26
##########                    Molecular_Weight:             378.539
##########                DOCK_Rotatable_Bonds:                   7
##########                       Formal_Charge:          -0.0100004
##########                     HBond_Acceptors:                   7
##########                        HBond_Donors:                   2
##########                         Heavy_Atoms:                  26
##########                          Grid_Score:          -32.192844
##########                     Grid_vdw_energy:          -31.927582
##########                      Grid_es_energy:           -0.265261
##########           Internal_energy_repulsive:           26.107813

@<TRIPOS>MOLECULE
ZINC000195331548
 56 58 1 0 0
SMALL
USER_CHARGES


@<TRIPOS>ATOM
      1 C1         -8.6046   -0.3590   59.9014 C.3     1  ZINC000195331548   -0.0800
      2 C2         -8.6256   -0.2275   58.4004 C.2     1  ZINC000195331548    0.0700
      3 C3         -9.4459   -0.9413   57.6234 C.2     1  ZINC000195331548   -0.2600
      4 S4         -9.1494   -0.4760   55.9501 S.3     1  ZINC000195331548    0.1100
      5 C5         -7.9461    0.6260   56.4608 C.2     1  ZINC000195331548    0.0600
      6 C6         -7.1349    1.5040   55.5430 C.3     1  ZINC000195331548   -0.0100
      7 H7         -6.1417    1.6543   55.9662 H       1  ZINC000195331548    0.1100
      8 C8         -7.8324    2.8575   55.3821 C.3     1  ZINC000195331548   -0.1200
      9 C9         -7.0338    3.7210   54.4017 C.3     1  ZINC000195331548   -0.1100
     10 C10        -6.9122    2.9864   53.0647 C.3     1  ZINC000195331548    0.0500
     11 N11        -6.2380    1.6984   53.2719 N.3     1  ZINC000195331548   -0.5200
     12 C12        -5.9799    1.0272   51.9909 C.3     1  ZINC000195331548    0.0400
     13 C13        -4.7549    1.6250   51.3485 C.2     1  ZINC000195331548    0.5100
     14 O14        -4.2938    2.6633   51.7718 O.2     1  ZINC000195331548   -0.4400
     15 N15        -4.1717    1.0052   50.3033 N.am    1  ZINC000195331548   -0.7000
     16 C16        -3.0769    1.5406   49.7277 C.2     1  ZINC000195331548    0.6900
     17 O17        -2.6164    2.5831   50.1501 O.2     1  ZINC000195331548   -0.5300
     18 N18        -2.4928    0.9201   48.6836 N.am    1  ZINC000195331548   -0.7300
     19 C19        -1.3018    1.5013   48.0590 C.3     1  ZINC000195331548    0.1700
     20 H20        -0.6838    1.9722   48.8234 H       1  ZINC000195331548    0.0900
     21 C21        -1.7263    2.5498   47.0289 C.3     1  ZINC000195331548   -0.1300
     22 C22        -2.5937    1.8887   45.9559 C.3     1  ZINC000195331548   -0.1200
     23 C23        -1.7929    0.7859   45.2607 C.3     1  ZINC000195331548   -0.1200
     24 C24        -1.3683   -0.2627   46.2908 C.3     1  ZINC000195331548   -0.1100
     25 C25        -0.5009    0.3984   47.3638 C.3     1  ZINC000195331548   -0.1000
     26 H26         0.3852    0.8308   46.8991 H       1  ZINC000195331548    0.0900
     27 C27        -0.0765   -0.6502   48.3940 C.3     1  ZINC000195331548   -0.1500
     28 C28        -7.0104    0.8337   54.1729 C.3     1  ZINC000195331548    0.0600
     29 N29        -7.8367    0.6010   57.7462 N.2     1  ZINC000195331548   -0.4700
     30 H30        -9.3119    0.3462   60.3379 H       1  ZINC000195331548    0.0800
     31 H31        -8.8848   -1.3746   60.1811 H       1  ZINC000195331548    0.0800
     32 H32        -7.6020   -0.1438   60.2711 H       1  ZINC000195331548    0.0800
     33 H33       -10.1661   -1.6716   57.9618 H       1  ZINC000195331548    0.1800
     34 H34        -8.8400    2.7045   54.9955 H       1  ZINC000195331548    0.0600
     35 H35        -7.8854    3.3572   56.3493 H       1  ZINC000195331548    0.0700
     36 H36        -7.5481    4.6699   54.2501 H       1  ZINC000195331548    0.0800
     37 H37        -6.0390    3.9063   54.8069 H       1  ZINC000195331548    0.0800
     38 H38        -6.3319    3.5923   52.3688 H       1  ZINC000195331548    0.0800
     39 H39        -7.9068    2.8137   52.6535 H       1  ZINC000195331548    0.0400
     40 H40        -6.8377    1.1606   51.3316 H       1  ZINC000195331548    0.1200
     41 H41        -5.8169   -0.0365   52.1644 H       1  ZINC000195331548    0.0700
     42 H42        -4.5399    0.1739   49.9654 H       1  ZINC000195331548    0.4100
     43 H43        -2.8610    0.0888   48.3456 H       1  ZINC000195331548    0.4000
     44 H44        -0.8401    2.9822   46.5642 H       1  ZINC000195331548    0.0700
     45 H45        -2.2968    3.3356   47.5241 H       1  ZINC000195331548    0.0700
     46 H46        -2.8961    2.6358   45.2219 H       1  ZINC000195331548    0.0600
     47 H47        -3.4798    1.4565   46.4205 H       1  ZINC000195331548    0.0600
     48 H48        -2.4109    0.3149   44.4963 H       1  ZINC000195331548    0.0600
     49 H49        -0.9067    1.2183   44.7961 H       1  ZINC000195331548    0.0600
     50 H50        -2.2546   -0.6950   46.7555 H       1  ZINC000195331548    0.0600
     51 H51        -0.7978   -1.0484   45.7956 H       1  ZINC000195331548    0.0700
     52 H52        -0.9626   -1.0825   48.8587 H       1  ZINC000195331548    0.0500
     53 H53         0.4941   -1.4359   47.8987 H       1  ZINC000195331548    0.0600
     54 H54         0.5415   -0.1793   49.1584 H       1  ZINC000195331548    0.0600
     55 H55        -8.0046    0.6710   53.7564 H       1  ZINC000195331548    0.0400
     56 H56        -6.5014   -0.1240   54.2820 H       1  ZINC000195331548    0.0900
@<TRIPOS>BOND
     1     1     2    1
     2     1    30    1
     3     1    31    1
     4     1    32    1
     5     2    29    1
     6     2     3    2
     7     3     4    1
     8     3    33    1
     9     4     5    1
    10     5     6    1
    11     5    29    2
    12     6     7    1
    13     6    28    1
    14     6     8    1
    15     8     9    1
    16     8    34    1
    17     8    35    1
    18     9    10    1
    19     9    36    1
    20     9    37    1
    21    10    11    1
    22    10    38    1
    23    10    39    1
    24    11    12    1
    25    11    28    1
    26    12    13    1
    27    12    40    1
    28    12    41    1
    29    13    14    2
    30    13    15   am
    31    15    16   am
    32    15    42    1
    33    16    17    2
    34    16    18   am
    35    18    19    1
    36    18    43    1
    37    19    20    1
    38    19    25    1
    39    19    21    1
    40    21    22    1
    41    21    44    1
    42    21    45    1
    43    22    23    1
    44    22    46    1
    45    22    47    1
    46    23    24    1
    47    23    48    1
    48    23    49    1
    49    24    25    1
    50    24    50    1
    51    24    51    1
    52    25    26    1
    53    25    27    1
    54    27    52    1
    55    27    53    1
    56    27    54    1
    57    28    55    1
    58    28    56    1
@<TRIPOS>SUBSTRUCTURE
     1 ZINC000195331548        1 TEMP              0 ****  ****    0 ROOT


##########                                Name:    ZINC000298969660
##########                DOCK_Rotatable_Bonds:                  10
##########                         Heavy_Atoms:                  29
##########                    Molecular_Weight:             397.474
##########                DOCK_Rotatable_Bonds:                  10
##########                       Formal_Charge:          -0.0100008
##########                     HBond_Acceptors:                   7
##########                        HBond_Donors:                   2
##########                         Heavy_Atoms:                  29
##########                          Grid_Score:          -32.191799
##########                     Grid_vdw_energy:          -32.692249
##########                      Grid_es_energy:            0.500449
##########           Internal_energy_repulsive:           17.046028

@<TRIPOS>MOLECULE
ZINC000298969660
 56 58 1 0 0
SMALL
USER_CHARGES


@<TRIPOS>ATOM
      1 C1          1.5561    2.8790   51.2462 C.3     1  ZINC000298969660    0.0800
      2 N2          0.3310    2.7272   50.4573 N.am    1  ZINC000298969660   -0.6300
      3 C3          0.3986    2.7180   48.9940 C.3     1  ZINC000298969660    0.1400
      4 C4          0.6093    1.2847   48.5021 C.3     1  ZINC000298969660    0.0700
      5 H5          1.6765    1.0888   48.3993 H       1  ZINC000298969660    0.0500
      6 C6         -0.0760    1.1046   47.1450 C.3     1  ZINC000298969660   -0.1500
      7 C7          0.0879   -0.3481   46.6877 C.3     1  ZINC000298969660   -0.1200
      8 C8         -0.4910   -1.2774   47.7590 C.3     1  ZINC000298969660   -0.1600
      9 C9          0.2103   -1.0053   49.0924 C.3     1  ZINC000298969660    0.0600
     10 O10         0.0455    0.3698   49.4442 O.3     1  ZINC000298969660   -0.3600
     11 C11        -0.8582    2.5960   51.0779 C.2     1  ZINC000298969660    0.7100
     12 O12        -0.9143    2.6051   52.2924 O.2     1  ZINC000298969660   -0.5400
     13 N13        -1.9851    2.4547   50.3522 N.am    1  ZINC000298969660   -0.6900
     14 C14        -3.2198    2.3185   50.9967 C.ar    1  ZINC000298969660    0.2000
     15 C15        -3.5584    3.1724   52.0383 C.ar    1  ZINC000298969660   -0.1800
     16 C16        -4.7772    3.0377   52.6750 C.ar    1  ZINC000298969660   -0.0600
     17 C17        -5.6621    2.0539   52.2772 C.ar    1  ZINC000298969660   -0.2300
     18 C18        -5.3290    1.1976   51.2367 C.ar    1  ZINC000298969660    0.1500
     19 O19        -6.2003    0.2303   50.8469 O.3     1  ZINC000298969660   -0.2900
     20 C20        -6.6600   -0.6731   51.8543 C.3     1  ZINC000298969660    0.0400
     21 C21        -8.0786   -0.3287   52.2284 C.2     1  ZINC000298969660    0.5100
     22 O22        -8.3775   -0.1718   53.3933 O.2     1  ZINC000298969660   -0.4900
     23 N23        -9.0151   -0.1951   51.2684 N.am    1  ZINC000298969660   -0.6700
     24 C24       -10.3324    0.1247   51.6157 C.ar    1  ZINC000298969660    0.1400
     25 C25       -11.3685   -0.7383   51.2839 C.ar    1  ZINC000298969660   -0.1400
     26 C26       -12.6675   -0.4198   51.6282 C.ar    1  ZINC000298969660   -0.1000
     27 C27       -12.9371    0.7573   52.3019 C.ar    1  ZINC000298969660   -0.1300
     28 C28       -11.9076    1.6190   52.6334 C.ar    1  ZINC000298969660   -0.1000
     29 C29       -10.6055    1.3030   52.2979 C.ar    1  ZINC000298969660   -0.1200
     30 C30        -4.1098    1.3334   50.5920 C.ar    1  ZINC000298969660   -0.1500
     31 H31         1.7412    3.9373   51.4300 H       1  ZINC000298969660    0.0600
     32 H32         1.4422    2.3595   52.1977 H       1  ZINC000298969660    0.0700
     33 H33         2.3964    2.4531   50.6979 H       1  ZINC000298969660    0.0800
     34 H34        -0.5329    3.1094   48.5847 H       1  ZINC000298969660    0.1000
     35 H35         1.2301    3.3411   48.6646 H       1  ZINC000298969660    0.0900
     36 H36        -1.1362    1.3397   47.2382 H       1  ZINC000298969660    0.0800
     37 H37         0.3829    1.7705   46.4141 H       1  ZINC000298969660    0.0700
     38 H38        -0.4454   -0.4972   45.7488 H       1  ZINC000298969660    0.0700
     39 H39         1.1460   -0.5689   46.5466 H       1  ZINC000298969660    0.0600
     40 H40        -1.5596   -1.0904   47.8646 H       1  ZINC000298969660    0.0700
     41 H41        -0.3289   -2.3151   47.4672 H       1  ZINC000298969660    0.0700
     42 H42        -0.2272   -1.6339   49.8681 H       1  ZINC000298969660    0.0900
     43 H43         1.2724   -1.2314   48.9973 H       1  ZINC000298969660    0.0400
     44 H44        -1.9403    2.4475   49.3833 H       1  ZINC000298969660    0.4100
     45 H45        -2.8683    3.9422   52.3511 H       1  ZINC000298969660    0.1300
     46 H46        -5.0385    3.7021   53.4852 H       1  ZINC000298969660    0.1300
     47 H47        -6.6141    1.9509   52.7767 H       1  ZINC000298969660    0.1300
     48 H48        -6.6224   -1.6932   51.4720 H       1  ZINC000298969660    0.1000
     49 H49        -6.0220   -0.5911   52.7343 H       1  ZINC000298969660    0.1000
     50 H50        -8.7760   -0.3206   50.3368 H       1  ZINC000298969660    0.4100
     51 H51       -11.1587   -1.6575   50.7571 H       1  ZINC000298969660    0.1300
     52 H52       -13.4738   -1.0906   51.3705 H       1  ZINC000298969660    0.1300
     53 H53       -13.9538    1.0043   52.5697 H       1  ZINC000298969660    0.1200
     54 H54       -12.1213    2.5379   53.1590 H       1  ZINC000298969660    0.1300
     55 H55        -9.8020    1.9764   52.5569 H       1  ZINC000298969660    0.1300
     56 H56        -3.8490    0.6681   49.7823 H       1  ZINC000298969660    0.1500
@<TRIPOS>BOND
     1     1     2    1
     2     1    31    1
     3     1    32    1
     4     1    33    1
     5     2     3    1
     6     2    11   am
     7     3     4    1
     8     3    34    1
     9     3    35    1
    10     4     5    1
    11     4    10    1
    12     4     6    1
    13     6     7    1
    14     6    36    1
    15     6    37    1
    16     7     8    1
    17     7    38    1
    18     7    39    1
    19     8     9    1
    20     8    40    1
    21     8    41    1
    22     9    10    1
    23     9    42    1
    24     9    43    1
    25    11    12    2
    26    11    13   am
    27    13    14    1
    28    13    44    1
    29    14    30   ar
    30    14    15   ar
    31    15    16   ar
    32    15    45    1
    33    16    17   ar
    34    16    46    1
    35    17    18   ar
    36    17    47    1
    37    18    19    1
    38    18    30   ar
    39    19    20    1
    40    20    21    1
    41    20    48    1
    42    20    49    1
    43    21    22    2
    44    21    23   am
    45    23    24    1
    46    23    50    1
    47    24    29   ar
    48    24    25   ar
    49    25    26   ar
    50    25    51    1
    51    26    27   ar
    52    26    52    1
    53    27    28   ar
    54    27    53    1
    55    28    29   ar
    56    28    54    1
    57    29    55    1
    58    30    56    1
@<TRIPOS>SUBSTRUCTURE
     1 ZINC000298969660        1 TEMP              0 ****  ****    0 ROOT


##########                                Name:    ZINC000642096826
##########                DOCK_Rotatable_Bonds:                  12
##########                         Heavy_Atoms:                  25
##########                    Molecular_Weight:             345.485
##########                DOCK_Rotatable_Bonds:                  12
##########                       Formal_Charge:          0.00999919
##########                     HBond_Acceptors:                   5
##########                        HBond_Donors:                   1
##########                         Heavy_Atoms:                  25
##########                          Grid_Score:          -32.169575
##########                     Grid_vdw_energy:          -32.349323
##########                      Grid_es_energy:            0.179747
##########           Internal_energy_repulsive:           21.548124

@<TRIPOS>MOLECULE
ZINC000642096826
 56 57 1 0 0
SMALL
USER_CHARGES


@<TRIPOS>ATOM
      1 C1        -12.9990    0.9624   63.7939 C.3     1  ZINC000642096826   -0.1500
      2 C2        -14.4384    0.4949   63.5692 C.3     1  ZINC000642096826   -0.1400
      3 C3        -14.6890    0.3180   62.0703 C.3     1  ZINC000642096826    0.1200
      4 N4        -13.9891   -0.8783   61.5960 N.am    1  ZINC000642096826   -0.6200
      5 C5        -14.5557   -2.2059   61.8460 C.3     1  ZINC000642096826    0.1100
      6 C6        -15.1929   -2.7388   60.5610 C.3     1  ZINC000642096826   -0.1400
      7 C7        -16.3212   -1.8022   60.1248 C.3     1  ZINC000642096826   -0.1500
      8 C8        -12.8239   -0.7575   60.9295 C.2     1  ZINC000642096826    0.5200
      9 O9        -12.3540    0.3414   60.7238 O.2     1  ZINC000642096826   -0.5200
     10 C10       -12.1047   -1.9882   60.4400 C.3     1  ZINC000642096826    0.0400
     11 N11       -10.6909   -1.6675   60.2035 N.3     1  ZINC000642096826   -0.5200
     12 C12        -9.9557   -1.5626   61.4710 C.3     1  ZINC000642096826    0.0100
     13 C13       -10.0683   -2.6571   59.3141 C.3     1  ZINC000642096826    0.0900
     14 C14        -9.8521   -2.0446   57.9542 C.ar    1  ZINC000642096826   -0.0500
     15 C15        -9.1421   -0.8630   57.8361 C.ar    1  ZINC000642096826   -0.1000
     16 C16        -8.9411   -0.2967   56.5942 C.ar    1  ZINC000642096826   -0.0600
     17 C17        -9.4554   -0.9189   55.4555 C.ar    1  ZINC000642096826   -0.1400
     18 C18        -9.2434   -0.3179   54.1214 C.2     1  ZINC000642096826    0.5600
     19 O19       -10.1662    0.2246   53.5456 O.2     1  ZINC000642096826   -0.5300
     20 N20        -8.0269   -0.3716   53.5438 N.am    1  ZINC000642096826   -0.7000
     21 C21        -7.8172    0.2224   52.2211 C.3     1  ZINC000642096826    0.0800
     22 C22        -6.4498    0.0210   51.5649 C.3     1  ZINC000642096826   -0.1900
     23 C23        -7.6715   -0.7313   51.0335 C.3     1  ZINC000642096826   -0.1900
     24 C24       -10.1704   -2.1109   55.5817 C.ar    1  ZINC000642096826   -0.0900
     25 C25       -10.3597   -2.6693   56.8289 C.ar    1  ZINC000642096826   -0.1200
     26 H26       -12.3090    0.2185   63.3955 H       1  ZINC000642096826    0.0600
     27 H27       -12.8421    1.9131   63.2847 H       1  ZINC000642096826    0.0600
     28 H28       -12.8204    1.0883   64.8618 H       1  ZINC000642096826    0.0600
     29 H29       -14.5953   -0.4560   64.0785 H       1  ZINC000642096826    0.0600
     30 H30       -15.1284    1.2387   63.9677 H       1  ZINC000642096826    0.0600
     31 H31       -15.7586    0.2082   61.8913 H       1  ZINC000642096826    0.0800
     32 H32       -14.3188    1.1921   61.5344 H       1  ZINC000642096826    0.0800
     33 H33       -13.7651   -2.8838   62.1677 H       1  ZINC000642096826    0.0800
     34 H34       -15.3142   -2.1363   62.6258 H       1  ZINC000642096826    0.0800
     35 H35       -14.4388   -2.7896   59.7757 H       1  ZINC000642096826    0.0700
     36 H36       -15.5969   -3.7349   60.7418 H       1  ZINC000642096826    0.0700
     37 H37       -16.7751   -2.1819   59.2094 H       1  ZINC000642096826    0.0600
     38 H38       -17.0754   -1.7514   60.9103 H       1  ZINC000642096826    0.0600
     39 H39       -15.9172   -0.8061   59.9440 H       1  ZINC000642096826    0.0600
     40 H40       -12.1783   -2.7747   61.1909 H       1  ZINC000642096826    0.0600
     41 H41       -12.5603   -2.3295   59.5105 H       1  ZINC000642096826    0.1000
     42 H42       -10.0144   -2.5112   62.0046 H       1  ZINC000642096826    0.0200
     43 H43        -8.9118   -1.3245   61.2669 H       1  ZINC000642096826    0.0700
     44 H44       -10.3954   -0.7742   62.0819 H       1  ZINC000642096826    0.0900
     45 H45        -9.1094   -2.9667   59.7297 H       1  ZINC000642096826    0.0500
     46 H46       -10.7216   -3.5248   59.2221 H       1  ZINC000642096826    0.0900
     47 H47        -8.7448   -0.3826   58.7179 H       1  ZINC000642096826    0.1300
     48 H48        -8.3874    0.6261   56.5033 H       1  ZINC000642096826    0.1400
     49 H49        -7.2902   -0.8035   54.0038 H       1  ZINC000642096826    0.4000
     50 H50        -8.3253    1.1706   52.0457 H       1  ZINC000642096826    0.1400
     51 H51        -6.0578    0.8370   50.9579 H       1  ZINC000642096826    0.1000
     52 H52        -5.7061   -0.5534   52.1174 H       1  ZINC000642096826    0.1000
     53 H53        -7.7315   -1.8006   51.2364 H       1  ZINC000642096826    0.1000
     54 H54        -8.0833   -0.4102   50.0767 H       1  ZINC000642096826    0.1100
     55 H55       -10.5711   -2.5971   54.7045 H       1  ZINC000642096826    0.1200
     56 H56       -10.9124   -3.5919   56.9279 H       1  ZINC000642096826    0.1300
@<TRIPOS>BOND
     1     1     2    1
     2     1    26    1
     3     1    27    1
     4     1    28    1
     5     2     3    1
     6     2    29    1
     7     2    30    1
     8     3     4    1
     9     3    31    1
    10     3    32    1
    11     4     5    1
    12     4     8   am
    13     5     6    1
    14     5    33    1
    15     5    34    1
    16     6     7    1
    17     6    35    1
    18     6    36    1
    19     7    37    1
    20     7    38    1
    21     7    39    1
    22     8     9    2
    23     8    10    1
    24    10    11    1
    25    10    40    1
    26    10    41    1
    27    11    12    1
    28    11    13    1
    29    12    42    1
    30    12    43    1
    31    12    44    1
    32    13    14    1
    33    13    45    1
    34    13    46    1
    35    14    25   ar
    36    14    15   ar
    37    15    16   ar
    38    15    47    1
    39    16    17   ar
    40    16    48    1
    41    17    18    1
    42    17    24   ar
    43    18    19    2
    44    18    20   am
    45    20    21    1
    46    20    49    1
    47    21    23    1
    48    21    22    1
    49    21    50    1
    50    22    23    1
    51    22    51    1
    52    22    52    1
    53    23    53    1
    54    23    54    1
    55    24    25   ar
    56    24    55    1
    57    25    56    1
@<TRIPOS>SUBSTRUCTURE
     1 ZINC000642096826        1 TEMP              0 ****  ****    0 ROOT


##########                                Name:    ZINC000369046711
##########                DOCK_Rotatable_Bonds:                   8
##########                         Heavy_Atoms:                  26
##########                    Molecular_Weight:             367.467
##########                DOCK_Rotatable_Bonds:                   8
##########                       Formal_Charge:        -7.63685e-07
##########                     HBond_Acceptors:                   8
##########                        HBond_Donors:                   1
##########                         Heavy_Atoms:                  26
##########                          Grid_Score:          -32.162304
##########                     Grid_vdw_energy:          -31.981428
##########                      Grid_es_energy:           -0.180877
##########           Internal_energy_repulsive:           19.469679

@<TRIPOS>MOLECULE
ZINC000369046711
 56 58 1 0 0
SMALL
USER_CHARGES


@<TRIPOS>ATOM
      1 C1        -17.2654   -2.5100   59.7558 C.3     1  ZINC000369046711   -0.1800
      2 C2        -15.7775   -2.3524   59.4361 C.3     1  ZINC000369046711    0.1400
      3 C3        -15.6109   -1.4337   58.2240 C.3     1  ZINC000369046711   -0.1800
      4 C4        -15.0588   -1.7423   60.6410 C.3     1  ZINC000369046711   -0.1400
      5 O5        -15.2057   -3.6536   59.1392 O.3     1  ZINC000369046711   -0.3700
      6 C6        -14.2027   -3.6903   58.2418 C.2     1  ZINC000369046711    0.6500
      7 O7        -14.3612   -4.2522   57.1761 O.2     1  ZINC000369046711   -0.5700
      8 N8        -13.0229   -3.1038   58.5255 N.am    1  ZINC000369046711   -0.7100
      9 C9        -11.9321   -3.1422   57.5481 C.3     1  ZINC000369046711    0.1800
     10 H10       -12.0261   -4.0461   56.9464 H       1  ZINC000369046711    0.0900
     11 C11       -10.5976   -3.1752   58.2921 C.3     1  ZINC000369046711   -0.1300
     12 C12       -10.4813   -1.8896   59.1193 C.3     1  ZINC000369046711   -0.1200
     13 C13       -10.4347   -0.7026   58.1614 C.3     1  ZINC000369046711   -0.1200
     14 C14       -11.7254   -0.6040   57.3456 C.3     1  ZINC000369046711   -0.1000
     15 H15       -12.5599   -0.2367   57.9427 H       1  ZINC000369046711    0.0900
     16 C16       -11.4119    0.3204   56.1372 C.3     1  ZINC000369046711    0.0400
     17 N17       -10.9683   -0.5520   55.0324 N.3     1  ZINC000369046711   -0.5200
     18 C18        -9.6158   -0.1910   54.5871 C.3     1  ZINC000369046711    0.1200
     19 C19        -9.4395   -0.5875   53.1440 C.2     1  ZINC000369046711    0.2900
     20 N20       -10.3367   -1.1728   52.3929 N.2     1  ZINC000369046711   -0.5400
     21 C21        -9.8419   -1.3756   51.1726 C.2     1  ZINC000369046711    0.2000
     22 N22        -8.6175   -0.9201   51.1299 N.2     1  ZINC000369046711   -0.3200
     23 N23        -8.3349   -0.3963   52.4020 N.pl3   1  ZINC000369046711   -0.3700
     24 C24        -7.0820    0.2261   52.8368 C.3     1  ZINC000369046711    0.1000
     25 C25        -5.9523   -0.1873   51.8916 C.3     1  ZINC000369046711    0.0500
     26 F26        -5.8610   -1.5829   51.8560 F       1  ZINC000369046711   -0.2000
     27 C27       -11.0177   -1.9599   55.4939 C.3     1  ZINC000369046711    0.0500
     28 C28       -12.0373   -1.9385   56.6468 C.3     1  ZINC000369046711   -0.1000
     29 H29       -13.0451   -1.8982   56.2333 H       1  ZINC000369046711    0.0900
     30 H30       -17.7774   -2.9446   58.8974 H       1  ZINC000369046711    0.0900
     31 H31       -17.3841   -3.1645   60.6193 H       1  ZINC000369046711    0.0600
     32 H32       -17.6946   -1.5332   59.9786 H       1  ZINC000369046711    0.0700
     33 H33       -16.0400   -0.4568   58.4468 H       1  ZINC000369046711    0.0700
     34 H34       -14.5508   -1.3213   57.9962 H       1  ZINC000369046711    0.0600
     35 H35       -16.1229   -1.8683   57.3655 H       1  ZINC000369046711    0.0900
     36 H36       -15.1774   -2.3968   61.5046 H       1  ZINC000369046711    0.0700
     37 H37       -13.9987   -1.6300   60.4132 H       1  ZINC000369046711    0.0700
     38 H38       -15.4879   -0.7655   60.8638 H       1  ZINC000369046711    0.0800
     39 H39       -12.8959   -2.6563   59.3766 H       1  ZINC000369046711    0.4000
     40 H40       -10.5655   -4.0419   58.9523 H       1  ZINC000369046711    0.0700
     41 H41        -9.7779   -3.2273   57.5755 H       1  ZINC000369046711    0.0800
     42 H42       -11.3456   -1.7967   59.7768 H       1  ZINC000369046711    0.0600
     43 H43        -9.5683   -1.9172   59.7141 H       1  ZINC000369046711    0.0700
     44 H44       -10.3028    0.2150   58.7348 H       1  ZINC000369046711    0.0700
     45 H45        -9.5906   -0.8238   57.4824 H       1  ZINC000369046711    0.0600
     46 H46       -12.3086    0.8661   55.8435 H       1  ZINC000369046711    0.0800
     47 H47       -10.6189    1.0206   56.4000 H       1  ZINC000369046711    0.0800
     48 H48        -9.4752    0.8851   54.6881 H       1  ZINC000369046711    0.0800
     49 H49        -8.8804   -0.7125   55.1997 H       1  ZINC000369046711    0.1000
     50 H50       -10.3671   -1.8413   50.3518 H       1  ZINC000369046711    0.2200
     51 H51        -7.1905    1.3106   52.8211 H       1  ZINC000369046711    0.1200
     52 H52        -6.8464   -0.1008   53.8496 H       1  ZINC000369046711    0.1100
     53 H53        -6.1606    0.1888   50.8900 H       1  ZINC000369046711    0.0900
     54 H54        -5.0100    0.2294   52.2475 H       1  ZINC000369046711    0.0800
     55 H55       -11.3601   -2.6131   54.6914 H       1  ZINC000369046711    0.0900
     56 H56       -10.0398   -2.2778   55.8557 H       1  ZINC000369046711    0.0600
@<TRIPOS>BOND
     1     1     2    1
     2     1    30    1
     3     1    31    1
     4     1    32    1
     5     2     3    1
     6     2     4    1
     7     2     5    1
     8     3    33    1
     9     3    34    1
    10     3    35    1
    11     4    36    1
    12     4    37    1
    13     4    38    1
    14     5     6    1
    15     6     7    2
    16     6     8   am
    17     8     9    1
    18     8    39    1
    19     9    10    1
    20     9    28    1
    21     9    11    1
    22    11    12    1
    23    11    40    1
    24    11    41    1
    25    12    13    1
    26    12    42    1
    27    12    43    1
    28    13    14    1
    29    13    44    1
    30    13    45    1
    31    14    15    1
    32    14    28    1
    33    14    16    1
    34    16    17    1
    35    16    46    1
    36    16    47    1
    37    17    18    1
    38    17    27    1
    39    18    19    1
    40    18    48    1
    41    18    49    1
    42    19    23    1
    43    19    20    2
    44    20    21    1
    45    21    22    2
    46    21    50    1
    47    22    23    1
    48    23    24    1
    49    24    25    1
    50    24    51    1
    51    24    52    1
    52    25    26    1
    53    25    53    1
    54    25    54    1
    55    27    28    1
    56    27    55    1
    57    27    56    1
    58    28    29    1
@<TRIPOS>SUBSTRUCTURE
     1 ZINC000369046711        1 TEMP              0 ****  ****    0 ROOT


##########                                Name:    ZINC000816269301
##########                DOCK_Rotatable_Bonds:                   7
##########                         Heavy_Atoms:                  25
##########                    Molecular_Weight:             358.784
##########                DOCK_Rotatable_Bonds:                   7
##########                       Formal_Charge:           0.0100002
##########                     HBond_Acceptors:                   8
##########                        HBond_Donors:                   1
##########                         Heavy_Atoms:                  25
##########                          Grid_Score:          -32.147720
##########                     Grid_vdw_energy:          -31.233402
##########                      Grid_es_energy:           -0.914317
##########           Internal_energy_repulsive:            6.834561

@<TRIPOS>MOLECULE
ZINC000816269301
 40 42 1 0 0
SMALL
USER_CHARGES


@<TRIPOS>ATOM
      1 C1          1.0133   -1.1216   47.8848 C.3     1  ZINC000816269301    0.1000
      2 N2         -0.3196   -0.5781   47.6119 N.pl3   1  ZINC000816269301   -0.4000
      3 N3         -1.0772   -0.7644   46.4468 N.2     1  ZINC000816269301    0.0000
      4 N4         -2.1969   -0.1409   46.5578 N.2     1  ZINC000816269301   -0.2000
      5 C5         -2.2660    0.4828   47.7580 C.ar    1  ZINC000816269301   -0.0300
      6 C6         -3.2422    1.2768   48.3655 C.ar    1  ZINC000816269301    0.0500
      7 C7         -3.0167    1.7866   49.6387 C.ar    1  ZINC000816269301   -0.1400
      8 C8         -4.0432    2.6256   50.2870 C.2     1  ZINC000816269301    0.5200
      9 O9         -4.0763    3.8206   50.0707 O.2     1  ZINC000816269301   -0.5000
     10 O10        -4.9437    2.0664   51.1186 O.3     1  ZINC000816269301   -0.3500
     11 C11        -5.3400    0.6982   50.8374 C.3     1  ZINC000816269301    0.0500
     12 C12        -6.0732    0.1202   52.0496 C.3     1  ZINC000816269301    0.1200
     13 N13        -7.4666    0.5723   52.0386 N.am    1  ZINC000816269301   -0.7200
     14 C14        -8.4424   -0.2616   51.6275 C.2     1  ZINC000816269301    0.5600
     15 O15        -8.1664   -1.3893   51.2671 O.2     1  ZINC000816269301   -0.5300
     16 C16        -9.8478    0.1951   51.6148 C.ar    1  ZINC000816269301   -0.1300
     17 C17       -10.8720   -0.6979   51.2944 C.ar    1  ZINC000816269301   -0.0700
     18 C18       -12.1816   -0.2659   51.2842 C.ar    1  ZINC000816269301   -0.1200
     19 C19       -12.4817    1.0511   51.5910 C.ar    1  ZINC000816269301   -0.0100
     20 Cl20      -14.1327    1.5875   51.5766 Cl      1  ZINC000816269301   -0.0600
     21 C21       -11.4698    1.9417   51.9096 C.ar    1  ZINC000816269301   -0.1200
     22 C22       -10.1571    1.5199   51.9287 C.ar    1  ZINC000816269301   -0.0500
     23 C23        -1.8174    1.5063   50.3100 C.ar    1  ZINC000816269301   -0.0200
     24 C24        -0.8616    0.7325   49.7225 C.ar    1  ZINC000816269301   -0.1300
     25 C25        -1.0714    0.2074   48.4496 C.ar    1  ZINC000816269301    0.1100
     26 H26         0.9173   -2.0983   48.3590 H       1  ZINC000816269301    0.0900
     27 H27         1.5623   -1.2247   46.9487 H       1  ZINC000816269301    0.1000
     28 H28         1.5520   -0.4463   48.5495 H       1  ZINC000816269301    0.1000
     29 H29        -4.1658    1.4932   47.8491 H       1  ZINC000816269301    0.1600
     30 H30        -6.0013    0.6821   49.9711 H       1  ZINC000816269301    0.0800
     31 H31        -4.4537    0.0988   50.6291 H       1  ZINC000816269301    0.1000
     32 H32        -6.0441   -0.9686   52.0066 H       1  ZINC000816269301    0.1000
     33 H33        -5.5878    0.4608   52.9642 H       1  ZINC000816269301    0.0900
     34 H34        -7.6870    1.4717   52.3274 H       1  ZINC000816269301    0.4000
     35 H35       -10.6393   -1.7249   51.0547 H       1  ZINC000816269301    0.1400
     36 H36       -12.9748   -0.9557   51.0362 H       1  ZINC000816269301    0.1400
     37 H37       -11.7098    2.9674   52.1479 H       1  ZINC000816269301    0.1400
     38 H38        -9.3690    2.2151   52.1776 H       1  ZINC000816269301    0.1500
     39 H39        -1.6500    1.9068   51.2990 H       1  ZINC000816269301    0.1500
     40 H40         0.0587    0.5222   50.2472 H       1  ZINC000816269301    0.1400
@<TRIPOS>BOND
     1     1     2    1
     2     1    26    1
     3     1    27    1
     4     1    28    1
     5     2    25    1
     6     2     3    1
     7     3     4    2
     8     4     5    1
     9     5    25   ar
    10     5     6   ar
    11     6     7   ar
    12     6    29    1
    13     7     8    1
    14     7    23   ar
    15     8     9    2
    16     8    10    1
    17    10    11    1
    18    11    12    1
    19    11    30    1
    20    11    31    1
    21    12    13    1
    22    12    32    1
    23    12    33    1
    24    13    14   am
    25    13    34    1
    26    14    15    2
    27    14    16    1
    28    16    22   ar
    29    16    17   ar
    30    17    18   ar
    31    17    35    1
    32    18    19   ar
    33    18    36    1
    34    19    20    1
    35    19    21   ar
    36    21    22   ar
    37    21    37    1
    38    22    38    1
    39    23    24   ar
    40    23    39    1
    41    24    25   ar
    42    24    40    1
@<TRIPOS>SUBSTRUCTURE
     1 ZINC000816269301        1 TEMP              0 ****  ****    0 ROOT


##########                                Name:    ZINC000066361645
##########                DOCK_Rotatable_Bonds:                   8
##########                         Heavy_Atoms:                  27
##########                    Molecular_Weight:             392.519
##########                DOCK_Rotatable_Bonds:                   8
##########                       Formal_Charge:           0.0100004
##########                     HBond_Acceptors:                   7
##########                        HBond_Donors:                   2
##########                         Heavy_Atoms:                  27
##########                          Grid_Score:          -32.140305
##########                     Grid_vdw_energy:          -31.658068
##########                      Grid_es_energy:           -0.482235
##########           Internal_energy_repulsive:            7.850660

@<TRIPOS>MOLECULE
ZINC000066361645
 55 57 1 0 0
SMALL
USER_CHARGES


@<TRIPOS>ATOM
      1 C1        -10.4330   -2.9445   56.9803 C.3     1  ZINC000066361645   -0.1400
      2 S2        -10.9510   -1.2420   56.6287 S.3     1  ZINC000066361645   -0.1100
      3 C3         -9.7469   -0.6937   55.4651 C.ar    1  ZINC000066361645   -0.1200
      4 C4         -9.5733   -1.3771   54.2709 C.ar    1  ZINC000066361645   -0.1100
      5 C5         -8.6260   -0.9457   53.3537 C.ar    1  ZINC000066361645    0.0500
      6 C6         -7.8506    0.1736   53.6304 C.ar    1  ZINC000066361645    0.0700
      7 C7         -8.0214    0.8576   54.8252 C.ar    1  ZINC000066361645   -0.1100
      8 C8         -8.9707    0.4315   55.7409 C.ar    1  ZINC000066361645    0.1800
      9 N9         -9.1425    1.1246   56.9487 N.am    1  ZINC000066361645   -0.6600
     10 C10        -8.2752    0.9364   57.9629 C.2     1  ZINC000066361645    0.5100
     11 O11        -7.3459    0.1678   57.8317 O.2     1  ZINC000066361645   -0.5000
     12 C12        -8.4597    1.6809   59.2601 C.3     1  ZINC000066361645   -0.1500
     13 C13        -9.0161    0.7282   60.3202 C.3     1  ZINC000066361645    0.1600
     14 H14        -8.7133   -0.2923   60.0864 H       1  ZINC000066361645    0.1000
     15 C15       -10.5436    0.8166   60.3339 C.3     1  ZINC000066361645   -0.1600
     16 N16        -8.4936    1.1034   61.6364 N.am    1  ZINC000066361645   -0.7200
     17 C17        -8.2874    0.1576   62.5742 C.2     1  ZINC000066361645    0.5300
     18 O18        -8.5333   -1.0042   62.3279 O.2     1  ZINC000066361645   -0.5400
     19 C19        -7.7516    0.5438   63.9287 C.3     1  ZINC000066361645   -0.1100
     20 C20        -8.0946    2.0071   64.2147 C.3     1  ZINC000066361645   -0.1100
     21 C21        -7.5505    2.3991   65.5899 C.3     1  ZINC000066361645   -0.1200
     22 C22        -8.1827    1.5084   66.6613 C.3     1  ZINC000066361645   -0.1200
     23 C23        -7.8397    0.0450   66.3753 C.3     1  ZINC000066361645   -0.1200
     24 C24        -8.3838   -0.3471   65.0001 C.3     1  ZINC000066361645   -0.1000
     25 O25        -6.9212    0.6153   52.7373 O.3     1  ZINC000066361645   -0.3000
     26 C26        -6.5169   -0.3069   51.7197 C.3     1  ZINC000066361645    0.0200
     27 C27        -7.7771   -0.9560   51.1316 C.3     1  ZINC000066361645    0.0200
     28 O28        -8.4675   -1.6321   52.1880 O.3     1  ZINC000066361645   -0.3100
     29 H29       -10.4461   -3.5260   56.0584 H       1  ZINC000066361645    0.0900
     30 H30        -9.4240   -2.9396   57.3925 H       1  ZINC000066361645    0.0900
     31 H31       -11.1178   -3.3911   57.7013 H       1  ZINC000066361645    0.1100
     32 H32       -10.1764   -2.2465   54.0547 H       1  ZINC000066361645    0.1400
     33 H33        -7.4164    1.7259   55.0405 H       1  ZINC000066361645    0.1600
     34 H34        -9.8855    1.7392   57.0537 H       1  ZINC000066361645    0.4100
     35 H35        -7.4993    2.0741   59.5933 H       1  ZINC000066361645    0.1000
     36 H36        -9.1573    2.5049   59.1101 H       1  ZINC000066361645    0.1200
     37 H37       -10.8464    1.8372   60.5676 H       1  ZINC000066361645    0.0600
     38 H38       -10.9324    0.5375   59.3546 H       1  ZINC000066361645    0.0700
     39 H39       -10.9400    0.1379   61.0891 H       1  ZINC000066361645    0.0700
     40 H40        -8.2958    2.0325   61.8330 H       1  ZINC000066361645    0.4000
     41 H41        -6.6692    0.4151   63.9415 H       1  ZINC000066361645    0.1000
     42 H42        -7.6442    2.6417   63.4514 H       1  ZINC000066361645    0.0600
     43 H43        -9.1769    2.1358   64.2020 H       1  ZINC000066361645    0.0700
     44 H44        -6.4683    2.2704   65.6027 H       1  ZINC000066361645    0.0600
     45 H45        -7.7949    3.4416   65.7937 H       1  ZINC000066361645    0.0700
     46 H46        -7.7951    1.7877   67.6410 H       1  ZINC000066361645    0.0600
     47 H47        -9.2650    1.6370   66.6485 H       1  ZINC000066361645    0.0600
     48 H48        -6.7573   -0.0836   66.3881 H       1  ZINC000066361645    0.0600
     49 H49        -8.2900   -0.5896   67.1387 H       1  ZINC000066361645    0.0700
     50 H50        -9.4660   -0.2183   64.9874 H       1  ZINC000066361645    0.0700
     51 H51        -8.1393   -1.3895   64.7964 H       1  ZINC000066361645    0.0700
     52 H52        -5.9769    0.2241   50.9358 H       1  ZINC000066361645    0.1300
     53 H53        -5.8760   -1.0748   52.1531 H       1  ZINC000066361645    0.0800
     54 H54        -8.4212   -0.1875   50.7042 H       1  ZINC000066361645    0.0800
     55 H55        -7.4956   -1.6719   50.3592 H       1  ZINC000066361645    0.1200
@<TRIPOS>BOND
     1     1     2    1
     2     1    29    1
     3     1    30    1
     4     1    31    1
     5     2     3    1
     6     3     8   ar
     7     3     4   ar
     8     4     5   ar
     9     4    32    1
    10     5    28    1
    11     5     6   ar
    12     6     7   ar
    13     6    25    1
    14     7     8   ar
    15     7    33    1
    16     8     9    1
    17     9    10   am
    18     9    34    1
    19    10    11    2
    20    10    12    1
    21    12    13    1
    22    12    35    1
    23    12    36    1
    24    13    14    1
    25    13    15    1
    26    13    16    1
    27    15    37    1
    28    15    38    1
    29    15    39    1
    30    16    17   am
    31    16    40    1
    32    17    18    2
    33    17    19    1
    34    19    24    1
    35    19    20    1
    36    19    41    1
    37    20    21    1
    38    20    42    1
    39    20    43    1
    40    21    22    1
    41    21    44    1
    42    21    45    1
    43    22    23    1
    44    22    46    1
    45    22    47    1
    46    23    24    1
    47    23    48    1
    48    23    49    1
    49    24    50    1
    50    24    51    1
    51    25    26    1
    52    26    27    1
    53    26    52    1
    54    26    53    1
    55    27    28    1
    56    27    54    1
    57    27    55    1
@<TRIPOS>SUBSTRUCTURE
     1 ZINC000066361645        1 TEMP              0 ****  ****    0 ROOT


##########                                Name:    ZINC000992031068
##########                DOCK_Rotatable_Bonds:                   8
##########                         Heavy_Atoms:                  25
##########                    Molecular_Weight:             342.401
##########                DOCK_Rotatable_Bonds:                   8
##########                       Formal_Charge:           0.0199999
##########                     HBond_Acceptors:                   8
##########                        HBond_Donors:                   2
##########                         Heavy_Atoms:                  25
##########                          Grid_Score:          -32.127361
##########                     Grid_vdw_energy:          -28.739441
##########                      Grid_es_energy:           -3.387920
##########           Internal_energy_repulsive:           10.277621

@<TRIPOS>MOLECULE
ZINC000992031068
 47 49 1 0 0
SMALL
USER_CHARGES


@<TRIPOS>ATOM
      1 C1          1.9114    1.1126   45.0507 C.3     1  ZINC000992031068   -0.1100
      2 C2          1.0095    0.5031   46.0931 C.ar    1  ZINC000992031068    0.1800
      3 C3         -0.1599    1.1459   46.4731 C.ar    1  ZINC000992031068   -0.1700
      4 C4         -0.9616    0.5411   47.4419 C.ar    1  ZINC000992031068    0.1300
      5 C5         -2.2238    1.1841   47.8858 C.2     1  ZINC000992031068    0.5700
      6 O6         -2.8776    1.8435   47.1026 O.2     1  ZINC000992031068   -0.5200
      7 N7         -2.6445    1.0363   49.1576 N.am    1  ZINC000992031068   -0.7100
      8 C8         -3.8911    1.6693   49.5952 C.3     1  ZINC000992031068    0.1300
      9 C9         -3.5690    2.9506   50.3667 C.3     1  ZINC000992031068   -0.1200
     10 C10        -4.3007    3.0583   51.7151 C.3     1  ZINC000992031068   -0.1400
     11 C11        -2.9951    3.6343   52.2882 C.3     1  ZINC000992031068    0.1200
     12 N12        -2.6808    3.1492   53.6344 N.am    1  ZINC000992031068   -0.7200
     13 C13        -1.9526    3.9128   54.4729 C.2     1  ZINC000992031068    0.5200
     14 O14        -1.5588    5.0021   54.1136 O.2     1  ZINC000992031068   -0.5200
     15 C15        -1.6279    3.4130   55.8570 C.3     1  ZINC000992031068   -0.0800
     16 C16        -0.1619    3.0731   55.9371 C.2     1  ZINC000992031068    0.1000
     17 C17         0.7972    3.4674   55.0678 C.2     1  ZINC000992031068   -0.2500
     18 C18         2.0167    2.9386   55.5033 C.2     1  ZINC000992031068    0.0500
     19 N19         1.7975    2.2515   56.5950 N.2     1  ZINC000992031068   -0.2900
     20 N20         0.4306    2.3259   56.8921 N.pl3   1  ZINC000992031068   -0.3700
     21 C21        -0.2390    1.6960   58.0327 C.3     1  ZINC000992031068    0.1000
     22 C22        -2.2612    2.8727   51.1720 C.3     1  ZINC000992031068   -0.1400
     23 N23        -0.5760   -0.6221   47.9610 N.ar    1  ZINC000992031068   -0.5000
     24 C24         0.5418   -1.1955   47.5699 C.ar    1  ZINC000992031068    0.3000
     25 N25         1.3198   -0.6534   46.6532 N.ar    1  ZINC000992031068   -0.5100
     26 H26         1.6118    0.7639   44.0624 H       1  ZINC000992031068    0.0900
     27 H27         1.8322    2.1989   45.0921 H       1  ZINC000992031068    0.0900
     28 H28         2.9422    0.8157   45.2437 H       1  ZINC000992031068    0.0900
     29 H29        -0.4422    2.0900   46.0309 H       1  ZINC000992031068    0.1600
     30 H30        -2.1219    0.5106   49.7833 H       1  ZINC000992031068    0.4100
     31 H31        -4.5001    1.9127   48.7245 H       1  ZINC000992031068    0.0700
     32 H32        -4.4392    0.9839   50.2417 H       1  ZINC000992031068    0.0800
     33 H33        -3.6503    3.8468   49.7516 H       1  ZINC000992031068    0.1000
     34 H34        -5.1261    3.7701   51.7083 H       1  ZINC000992031068    0.0800
     35 H35        -4.5761    2.0933   52.1406 H       1  ZINC000992031068    0.0900
     36 H36        -2.9208    4.7182   52.2009 H       1  ZINC000992031068    0.1200
     37 H37        -2.9969    2.2785   53.9222 H       1  ZINC000992031068    0.4000
     38 H38        -1.8617    4.1876   56.5873 H       1  ZINC000992031068    0.1200
     39 H39        -2.2195    2.5226   56.0698 H       1  ZINC000992031068    0.1100
     40 H40         0.6474    4.0816   54.1921 H       1  ZINC000992031068    0.1500
     41 H41         2.9737    3.0736   55.0213 H       1  ZINC000992031068    0.1800
     42 H42        -0.2363    2.3820   58.8797 H       1  ZINC000992031068    0.0800
     43 H43        -1.2675    1.4559   57.7630 H       1  ZINC000992031068    0.0800
     44 H44         0.2884    0.7815   58.3040 H       1  ZINC000992031068    0.0900
     45 H45        -1.9790    1.8569   51.4491 H       1  ZINC000992031068    0.0900
     46 H46        -1.4402    3.4346   50.7268 H       1  ZINC000992031068    0.0800
     47 H47         0.8285   -2.1394   48.0094 H       1  ZINC000992031068    0.2100
@<TRIPOS>BOND
     1     1     2    1
     2     1    26    1
     3     1    27    1
     4     1    28    1
     5     2    25   ar
     6     2     3   ar
     7     3     4   ar
     8     3    29    1
     9     4     5    1
    10     4    23   ar
    11     5     6    2
    12     5     7   am
    13     7     8    1
    14     7    30    1
    15     8     9    1
    16     8    31    1
    17     8    32    1
    18     9    22    1
    19     9    10    1
    20     9    33    1
    21    10    11    1
    22    10    34    1
    23    10    35    1
    24    11    12    1
    25    11    22    1
    26    11    36    1
    27    12    13   am
    28    12    37    1
    29    13    14    2
    30    13    15    1
    31    15    16    1
    32    15    38    1
    33    15    39    1
    34    16    20    1
    35    16    17    2
    36    17    18    1
    37    17    40    1
    38    18    19    2
    39    18    41    1
    40    19    20    1
    41    20    21    1
    42    21    42    1
    43    21    43    1
    44    21    44    1
    45    22    45    1
    46    22    46    1
    47    23    24   ar
    48    24    25   ar
    49    24    47    1
@<TRIPOS>SUBSTRUCTURE
     1 ZINC000992031068        1 TEMP              0 ****  ****    0 ROOT


##########                                Name:     oleObject27.pdb
##########                DOCK_Rotatable_Bonds:                   9
##########                         Heavy_Atoms:                  35
##########                    Molecular_Weight:             513.466
##########                DOCK_Rotatable_Bonds:                   9
##########                       Formal_Charge:         0.000199873
##########                     HBond_Acceptors:                   8
##########                        HBond_Donors:                   1
##########                         Heavy_Atoms:                  35
##########                          Grid_Score:          -32.117580
##########                     Grid_vdw_energy:          -31.781366
##########                      Grid_es_energy:           -0.336216
##########           Internal_energy_repulsive:           41.088459

@<TRIPOS>MOLECULE
oleObject27.pdb
 65 68 1 0 0
SMALL
NO_CHARGES


@<TRIPOS>ATOM
      1 C         -15.6820   -0.5024   45.8015 C.ar    1  UNL        -0.0620
      2 C         -16.0378   -0.9999   47.0634 C.ar    1  UNL        -0.0590
      3 C         -15.6294   -0.3397   48.2386 C.ar    1  UNL        -0.0456
      4 C         -14.8563    0.8445   48.1457 C.ar    1  UNL        -0.0187
      5 C         -14.4965    1.3270   46.8681 C.ar    1  UNL        -0.0565
      6 C         -14.9075    0.6608   45.7042 C.ar    1  UNL        -0.0619
      7 C         -14.3942    1.5926   49.4062 C.3     1  UNL         0.0921
      8 C         -15.5314    1.8240   50.4062 C.ar    1  UNL         0.0681
      9 C         -16.4150    2.9275   50.3021 C.ar    1  UNL        -0.0272
     10 C         -17.4244    3.0687   51.2730 C.ar    1  UNL        -0.0559
     11 C         -17.5146    2.1262   52.3076 C.ar    1  UNL        -0.0435
     12 C         -16.5870    1.0742   52.3417 C.ar    1  UNL         0.0272
     13 N         -15.6184    0.9300   51.4180 N.ar    1  UNL        -0.2587
     14 C         -16.2984    3.9631   49.1895 C.3     1  UNL        -0.0379
     15 N         -13.2545    0.9446   50.0713 N.am    1  UNL        -0.2865
     16 C         -12.4698    1.5561   51.0324 C.2     1  UNL         0.3014
     17 O         -12.6746    2.7023   51.3962 O.2     1  UNL        -0.2541
     18 N         -11.4324    0.7765   51.5475 N.am    1  UNL        -0.2833
     19 C         -10.4972    1.2846   52.5879 C.3     1  UNL         0.0284
     20 C          -9.2101    0.4452   52.7758 C.3     1  UNL         0.0142
     21 N          -9.4835   -1.0010   52.8416 N.4     1  UNL        -0.2979
     22 C         -10.1471   -1.4288   51.5943 C.3     1  UNL         0.0142
     23 C         -11.4884   -0.6948   51.3651 C.3     1  UNL         0.0284
     24 C         -10.1515   -1.4093   54.1008 C.3     1  UNL         0.0223
     25 C          -9.3852   -0.9728   55.3657 C.3     1  UNL         0.0661
     26 O         -10.0017   -1.6194   56.4930 O.3     1  UNL        -0.3432
     27 C          -9.6083   -1.4147   57.8015 C.ar    1  UNL         0.0937
     28 C          -8.6870   -0.4064   58.1571 C.ar    1  UNL        -0.0288
     29 C          -8.3138   -0.2319   59.5002 C.ar    1  UNL        -0.0408
     30 C          -8.8569   -1.0608   60.4945 C.ar    1  UNL         0.0422
     31 C          -9.7741   -2.0655   60.1489 C.ar    1  UNL        -0.0221
     32 C         -10.1492   -2.2424   58.8067 C.ar    1  UNL         0.0723
     33 CL        -11.2971   -3.5071   58.4084 Cl      1  UNL        -0.0814
     34 CL         -8.3899   -0.8406   62.1673 Cl      1  UNL        -0.0843
     35 C         -16.0299   -0.9326   49.5855 C.3     1  UNL        -0.0394
     36 H         -16.0013   -1.0207   44.9019 H       1  UNL         0.0623
     37 H         -16.6330   -1.9065   47.1264 H       1  UNL         0.0626
     38 H         -13.8878    2.2210   46.7705 H       1  UNL         0.0627
     39 H         -14.6236    1.0454   44.7290 H       1  UNL         0.0623
     40 H         -14.0293    2.5698   49.0766 H       1  UNL         0.0625
     41 H         -18.1255    3.8975   51.2300 H       1  UNL         0.0627
     42 H         -18.2828    2.2115   53.0704 H       1  UNL         0.0639
     43 H         -16.6194    0.3245   53.1313 H       1  UNL         0.0840
     44 H         -15.2831    4.3762   49.1385 H       1  UNL         0.0280
     45 H         -16.9852    4.8043   49.3460 H       1  UNL         0.0280
     46 H         -16.5359    3.5217   48.2137 H       1  UNL         0.0280
     47 H         -13.0046    0.0106   49.7783 H       1  UNL         0.1521
     48 H         -11.0398    1.3215   53.5413 H       1  UNL         0.0484
     49 H         -10.1871    2.3076   52.3419 H       1  UNL         0.0484
     50 H          -8.6855    0.7768   53.6811 H       1  UNL         0.0447
     51 H          -8.5446    0.6428   51.9253 H       1  UNL         0.0447
     52 H         -10.3139   -2.5122   51.5850 H       1  UNL         0.0447
     53 H          -9.4867   -1.2030   50.7470 H       1  UNL         0.0447
     54 H         -12.2370   -1.0937   52.0613 H       1  UNL         0.0484
     55 H         -11.8326   -0.9217   50.3479 H       1  UNL         0.0484
     56 H         -10.2883   -2.4977   54.1289 H       1  UNL         0.0455
     57 H         -11.1493   -0.9533   54.1402 H       1  UNL         0.0455
     58 H          -9.4446    0.1179   55.4720 H       1  UNL         0.0586
     59 H          -8.3325   -1.2719   55.2921 H       1  UNL         0.0586
     60 H          -8.2552    0.2460   57.4052 H       1  UNL         0.0652
     61 H          -7.6042    0.5457   59.7688 H       1  UNL         0.0639
     62 H         -10.1938   -2.7064   60.9191 H       1  UNL         0.0655
     63 H         -16.5362   -1.8990   49.4692 H       1  UNL         0.0280
     64 H         -16.7173   -0.2659   50.1210 H       1  UNL         0.0280
     65 H         -15.1515   -1.1016   50.2204 H       1  UNL         0.0280
@<TRIPOS>BOND
     1     1     2   ar
     2     1     6   ar
     3     1    36    1
     4     2     3   ar
     5     2    37    1
     6     3     4   ar
     7     3    35    1
     8     4     5   ar
     9     4     7    1
    10     5     6   ar
    11     5    38    1
    12     6    39    1
    13     7     8    1
    14     7    15    1
    15     7    40    1
    16     8     9   ar
    17     8    13   ar
    18     9    10   ar
    19     9    14    1
    20    10    11   ar
    21    10    41    1
    22    11    12   ar
    23    11    42    1
    24    12    13   ar
    25    12    43    1
    26    14    44    1
    27    14    45    1
    28    14    46    1
    29    15    16   am
    30    15    47    1
    31    16    17    2
    32    16    18   am
    33    18    19    1
    34    18    23    1
    35    19    20    1
    36    19    48    1
    37    19    49    1
    38    20    21    1
    39    20    50    1
    40    20    51    1
    41    21    22    1
    42    21    24    1
    43    22    23    1
    44    22    52    1
    45    22    53    1
    46    23    54    1
    47    23    55    1
    48    24    25    1
    49    24    56    1
    50    24    57    1
    51    25    26    1
    52    25    58    1
    53    25    59    1
    54    26    27    1
    55    27    28   ar
    56    27    32   ar
    57    28    29   ar
    58    28    60    1
    59    29    30   ar
    60    29    61    1
    61    30    31   ar
    62    30    34    1
    63    31    32   ar
    64    31    62    1
    65    32    33    1
    66    35    63    1
    67    35    64    1
    68    35    65    1
@<TRIPOS>SUBSTRUCTURE
     1 UNL         1 TEMP              0 ****  ****    0 ROOT


##########                                Name:    ZINC000859202493
##########                DOCK_Rotatable_Bonds:                  11
##########                         Heavy_Atoms:                  25
##########                    Molecular_Weight:             382.404
##########                DOCK_Rotatable_Bonds:                  11
##########                       Formal_Charge:          -0.0200009
##########                     HBond_Acceptors:                  10
##########                        HBond_Donors:                   3
##########                         Heavy_Atoms:                  25
##########                          Grid_Score:          -32.112583
##########                     Grid_vdw_energy:          -31.121670
##########                      Grid_es_energy:           -0.990913
##########           Internal_energy_repulsive:           29.284290

@<TRIPOS>MOLECULE
ZINC000859202493
 46 46 1 0 0
SMALL
USER_CHARGES


@<TRIPOS>ATOM
      1 C1         -1.1867    4.5371   45.1775 C.3     1  ZINC000859202493   -0.1500
      2 C2         -0.4835    3.1785   45.1531 C.3     1  ZINC000859202493   -0.1200
      3 C3         -1.5085    2.0787   44.8693 C.3     1  ZINC000859202493   -0.1000
      4 H4         -1.9788    2.2609   43.9030 H       1  ZINC000859202493    0.0700
      5 C5         -2.5765    2.0818   45.9650 C.3     1  ZINC000859202493   -0.1600
      6 C6         -0.8056    0.7200   44.8462 C.3     1  ZINC000859202493   -0.1200
      7 C7          0.1494    0.6195   46.0374 C.3     1  ZINC000859202493    0.1600
      8 H8         -0.1690    1.3108   46.8177 H       1  ZINC000859202493    0.1000
      9 C9          1.5669    0.9775   45.5863 C.3     1  ZINC000859202493    0.0500
     10 O10         2.5121    0.1993   46.3231 O.3     1  ZINC000859202493   -0.5700
     11 N11         0.1346   -0.7486   46.5610 N.am    1  ZINC000859202493   -1.1000
     12 S12        -0.8530   -1.1380   47.8321 S.o2    1  ZINC000859202493    2.6900
     13 O13        -2.1627   -0.7288   47.4627 O.2     1  ZINC000859202493   -0.9500
     14 O14        -0.5297   -2.4727   48.1972 O.2     1  ZINC000859202493   -0.9500
     15 C15        -0.3790   -0.1217   49.1913 C.ar    1  ZINC000859202493   -0.6600
     16 C16        -1.2187    0.8876   49.6245 C.ar    1  ZINC000859202493   -0.0300
     17 C17        -0.8501    1.6878   50.6907 C.ar    1  ZINC000859202493   -0.1100
     18 C18         0.3582    1.4804   51.3262 C.ar    1  ZINC000859202493   -0.0600
     19 C19         1.2038    0.4670   50.8936 C.ar    1  ZINC000859202493    0.1200
     20 N20         2.4286    0.2541   51.5357 N.am    1  ZINC000859202493   -0.6500
     21 C21         3.5771    0.6283   50.9377 C.2     1  ZINC000859202493    0.4800
     22 O22         3.5489    1.1497   49.8431 O.2     1  ZINC000859202493   -0.4500
     23 C23         4.8962    0.3989   51.6293 C.3     1  ZINC000859202493    0.4600
     24 F24         4.9196   -0.8898   52.1733 F       1  ZINC000859202493   -0.1500
     25 F25         5.9372    0.5337   50.7046 F       1  ZINC000859202493   -0.1600
     26 F26         5.0563    1.3398   52.6522 F       1  ZINC000859202493   -0.1600
     27 C27         0.8285   -0.3380   49.8263 C.ar    1  ZINC000859202493   -0.0300
     28 H28        -0.4565    5.3206   45.3797 H       1  ZINC000859202493    0.0500
     29 H29        -1.6577    4.7199   44.2117 H       1  ZINC000859202493    0.0500
     30 H30        -1.9470    4.5387   45.9586 H       1  ZINC000859202493    0.0600
     31 H31         0.2767    3.1769   44.3719 H       1  ZINC000859202493    0.0600
     32 H32        -0.0125    2.9958   46.1189 H       1  ZINC000859202493    0.0600
     33 H33        -3.3067    1.2982   45.7628 H       1  ZINC000859202493    0.0500
     34 H34        -2.1061    1.8996   46.9313 H       1  ZINC000859202493    0.0600
     35 H35        -3.0773    3.0497   45.9814 H       1  ZINC000859202493    0.0600
     36 H36        -1.5489   -0.0749   44.9084 H       1  ZINC000859202493    0.0800
     37 H37        -0.2417    0.6183   43.9189 H       1  ZINC000859202493    0.0800
     38 H38         1.6737    0.7670   44.5222 H       1  ZINC000859202493    0.0600
     39 H39         1.7490    2.0369   45.7671 H       1  ZINC000859202493    0.0600
     40 H40         3.4343    0.3854   46.0995 H       1  ZINC000859202493    0.3800
     41 H41         0.7031   -1.4264   46.1633 H       1  ZINC000859202493    0.4200
     42 H42        -2.1642    1.0518   49.1293 H       1  ZINC000859202493    0.1500
     43 H43        -1.5079    2.4759   51.0264 H       1  ZINC000859202493    0.1400
     44 H44         0.6456    2.1059   52.1584 H       1  ZINC000859202493    0.1400
     45 H45         2.4512   -0.1629   52.4113 H       1  ZINC000859202493    0.4200
     46 H46         1.4838   -1.1268   49.4876 H       1  ZINC000859202493    0.1500
@<TRIPOS>BOND
     1     1     2    1
     2     1    28    1
     3     1    29    1
     4     1    30    1
     5     2     3    1
     6     2    31    1
     7     2    32    1
     8     3     4    1
     9     3     5    1
    10     3     6    1
    11     5    33    1
    12     5    34    1
    13     5    35    1
    14     6     7    1
    15     6    36    1
    16     6    37    1
    17     7     8    1
    18     7     9    1
    19     7    11    1
    20     9    10    1
    21     9    38    1
    22     9    39    1
    23    10    40    1
    24    11    12   am
    25    11    41    1
    26    12    13    2
    27    12    14    2
    28    12    15    1
    29    15    27   ar
    30    15    16   ar
    31    16    17   ar
    32    16    42    1
    33    17    18   ar
    34    17    43    1
    35    18    19   ar
    36    18    44    1
    37    19    20    1
    38    19    27   ar
    39    20    21   am
    40    20    45    1
    41    21    22    2
    42    21    23    1
    43    23    24    1
    44    23    25    1
    45    23    26    1
    46    27    46    1
@<TRIPOS>SUBSTRUCTURE
     1 ZINC000859202493        1 TEMP              0 ****  ****    0 ROOT


##########                                Name:    ZINC000156038173
##########                DOCK_Rotatable_Bonds:                  10
##########                         Heavy_Atoms:                  27
##########                    Molecular_Weight:             396.357
##########                DOCK_Rotatable_Bonds:                  10
##########                       Formal_Charge:         -0.00999981
##########                     HBond_Acceptors:                  10
##########                        HBond_Donors:                   1
##########                         Heavy_Atoms:                  27
##########                          Grid_Score:          -32.098877
##########                     Grid_vdw_energy:          -31.762276
##########                      Grid_es_energy:           -0.336600
##########           Internal_energy_repulsive:           24.302250

@<TRIPOS>MOLECULE
ZINC000156038173
 48 48 1 0 0
SMALL
USER_CHARGES


@<TRIPOS>ATOM
      1 C1         -2.7982    3.5439   51.2375 C.3     1  ZINC000156038173    0.0700
      2 N2         -2.8227    2.4106   50.3096 N.am    1  ZINC000156038173   -0.6300
      3 C3         -4.0648    1.6626   50.0994 C.3     1  ZINC000156038173    0.1500
      4 C4         -4.9246    1.7367   51.3628 C.3     1  ZINC000156038173   -0.1400
      5 C5         -5.8125    0.5213   51.4380 C.2     1  ZINC000156038173    0.4700
      6 O6         -5.3325   -0.5645   51.6625 O.2     1  ZINC000156038173   -0.5000
      7 O7         -7.1366    0.6451   51.2556 O.3     1  ZINC000156038173   -0.3500
      8 C8         -7.9987    0.0696   52.2724 C.3     1  ZINC000156038173    0.1200
      9 C9         -8.0352   -1.4512   52.1089 C.3     1  ZINC000156038173   -0.1800
     10 C10        -7.4563    0.4205   53.6593 C.3     1  ZINC000156038173   -0.1400
     11 C11        -9.4130    0.6330   52.1203 C.3     1  ZINC000156038173   -0.1800
     12 C12        -1.7026    2.0561   49.6491 C.2     1  ZINC000156038173    0.7100
     13 O13        -0.6714    2.6759   49.8246 O.2     1  ZINC000156038173   -0.5700
     14 N14        -1.7256    1.0145   48.7942 N.am    1  ZINC000156038173   -0.7400
     15 C15        -0.5078    0.6280   48.0775 C.3     1  ZINC000156038173    0.1700
     16 H16         0.2933    1.3266   48.3192 H       1  ZINC000156038173    0.1500
     17 C17        -0.7678    0.6560   46.5934 C.ar    1  ZINC000156038173   -0.1300
     18 C18        -1.9864    0.2326   46.0973 C.ar    1  ZINC000156038173   -0.0700
     19 C19        -2.2266    0.2577   44.7359 C.ar    1  ZINC000156038173   -0.1000
     20 C20        -1.2487    0.7062   43.8683 C.ar    1  ZINC000156038173   -0.1100
     21 C21        -0.0273    1.1309   44.3620 C.ar    1  ZINC000156038173    0.0700
     22 F22         0.9291    1.5694   43.5145 F       1  ZINC000156038173   -0.1200
     23 C23         0.2115    1.1111   45.7276 C.ar    1  ZINC000156038173    0.1000
     24 F24         1.4028    1.5251   46.2118 F       1  ZINC000156038173   -0.1200
     25 C25        -0.0960   -0.7847   48.4965 C.3     1  ZINC000156038173    0.4500
     26 F26         1.1613   -1.0824   47.9599 F       1  ZINC000156038173   -0.1700
     27 F27        -0.0366   -0.8586   49.8923 F       1  ZINC000156038173   -0.1600
     28 F28        -1.0360   -1.7050   48.0204 F       1  ZINC000156038173   -0.1700
     29 H29        -2.5400    3.1906   52.2358 H       1  ZINC000156038173    0.0600
     30 H30        -2.0556    4.2694   50.9056 H       1  ZINC000156038173    0.0700
     31 H31        -3.7809    4.0149   51.2618 H       1  ZINC000156038173    0.0800
     32 H32        -4.6119    2.0949   49.2616 H       1  ZINC000156038173    0.1000
     33 H33        -3.8291    0.6211   49.8809 H       1  ZINC000156038173    0.0900
     34 H34        -4.2790    1.7699   52.2403 H       1  ZINC000156038173    0.1100
     35 H35        -5.5408    2.6353   51.3307 H       1  ZINC000156038173    0.1100
     36 H36        -7.0277   -1.8526   52.2172 H       1  ZINC000156038173    0.0600
     37 H37        -8.6824   -1.8832   52.8722 H       1  ZINC000156038173    0.0700
     38 H38        -8.4217   -1.7013   51.1209 H       1  ZINC000156038173    0.0800
     39 H39        -7.4303    1.5040   53.7757 H       1  ZINC000156038173    0.0700
     40 H40        -8.1035   -0.0115   54.4226 H       1  ZINC000156038173    0.0800
     41 H41        -6.4487    0.0192   53.7676 H       1  ZINC000156038173    0.0700
     42 H42        -9.7995    0.3829   51.1323 H       1  ZINC000156038173    0.0800
     43 H43       -10.0603    0.2009   52.8836 H       1  ZINC000156038173    0.0700
     44 H44        -9.3870    1.7165   52.2368 H       1  ZINC000156038173    0.0600
     45 H45        -2.5486    0.5207   48.6532 H       1  ZINC000156038173    0.4100
     46 H46        -2.7516   -0.1185   46.7737 H       1  ZINC000156038173    0.1400
     47 H47        -3.1792   -0.0739   44.3501 H       1  ZINC000156038173    0.1500
     48 H48        -1.4374    0.7249   42.8050 H       1  ZINC000156038173    0.1500
@<TRIPOS>BOND
     1     1     2    1
     2     1    29    1
     3     1    30    1
     4     1    31    1
     5     2     3    1
     6     2    12   am
     7     3     4    1
     8     3    32    1
     9     3    33    1
    10     4     5    1
    11     4    34    1
    12     4    35    1
    13     5     6    2
    14     5     7    1
    15     7     8    1
    16     8     9    1
    17     8    10    1
    18     8    11    1
    19     9    36    1
    20     9    37    1
    21     9    38    1
    22    10    39    1
    23    10    40    1
    24    10    41    1
    25    11    42    1
    26    11    43    1
    27    11    44    1
    28    12    13    2
    29    12    14   am
    30    14    15    1
    31    14    45    1
    32    15    16    1
    33    15    17    1
    34    15    25    1
    35    17    23   ar
    36    17    18   ar
    37    18    19   ar
    38    18    46    1
    39    19    20   ar
    40    19    47    1
    41    20    21   ar
    42    20    48    1
    43    21    22    1
    44    21    23   ar
    45    23    24    1
    46    25    26    1
    47    25    27    1
    48    25    28    1
@<TRIPOS>SUBSTRUCTURE
     1 ZINC000156038173        1 TEMP              0 ****  ****    0 ROOT


##########                                Name:    ZINC000859608860
##########                DOCK_Rotatable_Bonds:                   8
##########                         Heavy_Atoms:                  24
##########                    Molecular_Weight:             394.268
##########                DOCK_Rotatable_Bonds:                   8
##########                       Formal_Charge:          -0.0200003
##########                     HBond_Acceptors:                   6
##########                        HBond_Donors:                   1
##########                         Heavy_Atoms:                  24
##########                          Grid_Score:          -32.094063
##########                     Grid_vdw_energy:          -30.611015
##########                      Grid_es_energy:           -1.483047
##########           Internal_energy_repulsive:            7.300565

@<TRIPOS>MOLECULE
ZINC000859608860
 44 45 1 0 0
SMALL
USER_CHARGES


@<TRIPOS>ATOM
      1 C1         -7.1143    0.7183   52.8465 C.3     1  ZINC000859608860   -0.1400
      2 C2         -8.1379   -0.1341   52.0937 C.3     1  ZINC000859608860   -0.0800
      3 C3         -9.4595    0.6296   51.9894 C.3     1  ZINC000859608860   -0.1400
      4 C4         -7.6130   -0.4395   50.6894 C.3     1  ZINC000859608860   -0.1400
      5 C5         -8.3646   -1.4449   52.8496 C.3     1  ZINC000859608860    0.1300
      6 N6         -8.8162   -1.1511   54.2120 N.am    1  ZINC000859608860   -0.7300
      7 C7         -9.5743   -2.0444   54.8780 C.2     1  ZINC000859608860    0.5100
      8 O8         -9.8838   -3.0909   54.3490 O.2     1  ZINC000859608860   -0.5100
      9 C9        -10.0373   -1.7430   56.2800 C.3     1  ZINC000859608860    0.0500
     10 O10       -10.2964   -2.9872   56.9823 O.3     1  ZINC000859608860   -0.3100
     11 C11       -10.7182   -2.8931   58.2591 C.2     1  ZINC000859608860    0.5600
     12 O12       -11.7976   -3.3520   58.5779 O.2     1  ZINC000859608860   -0.5100
     13 C13        -9.8720   -2.2345   59.2669 C.2     1  ZINC000859608860   -0.0400
     14 C14       -10.3017   -1.6523   60.4246 C.2     1  ZINC000859608860    0.0500
     15 N15        -9.1965   -1.1695   61.0548 N.pl3   1  ZINC000859608860   -0.4100
     16 C16        -9.1723   -0.4926   62.2827 C.ar    1  ZINC000859608860    0.1400
     17 C17        -8.1239   -0.6981   63.1693 C.ar    1  ZINC000859608860   -0.1200
     18 C18        -8.1021   -0.0299   64.3779 C.ar    1  ZINC000859608860   -0.0600
     19 C19        -9.1239    0.8437   64.7052 C.ar    1  ZINC000859608860   -0.1000
     20 Br20       -9.0908    1.7568   66.3608 Br      1  ZINC000859608860   -0.0300
     21 C21       -10.1695    1.0505   63.8232 C.ar    1  ZINC000859608860   -0.0600
     22 C22       -10.1936    0.3883   62.6113 C.ar    1  ZINC000859608860   -0.1200
     23 C23        -8.1185   -1.4629   60.2770 C.2     1  ZINC000859608860    0.2000
     24 N24        -8.5216   -2.1010   59.2168 N.2     1  ZINC000859608860   -0.4300
     25 H25        -7.4881    0.9359   53.8469 H       1  ZINC000859608860    0.0500
     26 H26        -6.1728    0.1742   52.9207 H       1  ZINC000859608860    0.0600
     27 H27        -6.9527    1.6521   52.3079 H       1  ZINC000859608860    0.0600
     28 H28        -9.2980    1.5634   51.4508 H       1  ZINC000859608860    0.0600
     29 H29       -10.1887    0.0224   51.4530 H       1  ZINC000859608860    0.0600
     30 H30        -9.8334    0.8472   52.9899 H       1  ZINC000859608860    0.0500
     31 H31        -6.6715   -0.9836   50.7637 H       1  ZINC000859608860    0.0600
     32 H32        -8.3423   -1.0467   50.1531 H       1  ZINC000859608860    0.0600
     33 H33        -7.4515    0.4943   50.1508 H       1  ZINC000859608860    0.0600
     34 H34        -9.1229   -2.0348   52.3348 H       1  ZINC000859608860    0.0700
     35 H35        -7.4318   -2.0073   52.8894 H       1  ZINC000859608860    0.0700
     36 H36        -8.5696   -0.3136   54.6346 H       1  ZINC000859608860    0.4000
     37 H37        -9.2637   -1.1833   56.8058 H       1  ZINC000859608860    0.1000
     38 H38       -10.9515   -1.1506   56.2413 H       1  ZINC000859608860    0.1000
     39 H39       -11.3219   -1.5872   60.7729 H       1  ZINC000859608860    0.2000
     40 H40        -7.3263   -1.3802   62.9144 H       1  ZINC000859608860    0.1400
     41 H41        -7.2869   -0.1898   65.0680 H       1  ZINC000859608860    0.1500
     42 H42       -10.9660    1.7328   64.0810 H       1  ZINC000859608860    0.1500
     43 H43       -11.0101    0.5501   61.9232 H       1  ZINC000859608860    0.1500
     44 H44        -7.0935   -1.2104   60.5050 H       1  ZINC000859608860    0.2200
@<TRIPOS>BOND
     1     1     2    1
     2     1    25    1
     3     1    26    1
     4     1    27    1
     5     2     3    1
     6     2     4    1
     7     2     5    1
     8     3    28    1
     9     3    29    1
    10     3    30    1
    11     4    31    1
    12     4    32    1
    13     4    33    1
    14     5     6    1
    15     5    34    1
    16     5    35    1
    17     6     7   am
    18     6    36    1
    19     7     8    2
    20     7     9    1
    21     9    10    1
    22     9    37    1
    23     9    38    1
    24    10    11    1
    25    11    12    2
    26    11    13    1
    27    13    24    1
    28    13    14    2
    29    14    15    1
    30    14    39    1
    31    15    16    1
    32    15    23    1
    33    16    22   ar
    34    16    17   ar
    35    17    18   ar
    36    17    40    1
    37    18    19   ar
    38    18    41    1
    39    19    20    1
    40    19    21   ar
    41    21    22   ar
    42    21    42    1
    43    22    43    1
    44    23    24    2
    45    23    44    1
@<TRIPOS>SUBSTRUCTURE
     1 ZINC000859608860        1 TEMP              0 ****  ****    0 ROOT


##########                                Name:    ZINC001078748831
##########                DOCK_Rotatable_Bonds:                   6
##########                         Heavy_Atoms:                  23
##########                    Molecular_Weight:             333.417
##########                DOCK_Rotatable_Bonds:                   6
##########                       Formal_Charge:           0.0299999
##########                     HBond_Acceptors:                   9
##########                        HBond_Donors:                   2
##########                         Heavy_Atoms:                  23
##########                          Grid_Score:          -32.076710
##########                     Grid_vdw_energy:          -31.474207
##########                      Grid_es_energy:           -0.602504
##########           Internal_energy_repulsive:            6.056384

@<TRIPOS>MOLECULE
ZINC001078748831
 42 45 1 0 0
SMALL
USER_CHARGES


@<TRIPOS>ATOM
      1 C1         -5.9425   -0.8215   51.7531 C.3     1  ZINC001078748831    0.1000
      2 N2         -7.3643   -0.9737   52.0720 N.pl3   1  ZINC001078748831   -0.1400
      3 N3         -8.2669   -1.3155   51.2235 N.2     1  ZINC001078748831   -0.2900
      4 C4         -9.4291   -1.3602   51.8292 C.2     1  ZINC001078748831    0.0400
      5 C5         -9.1761   -1.0077   53.1700 C.2     1  ZINC001078748831   -0.0500
      6 C6        -10.1588   -0.9092   54.2696 C.2     1  ZINC001078748831    0.6200
      7 O7        -11.3493   -0.9360   54.0250 O.2     1  ZINC001078748831   -0.5200
      8 N8         -9.7350   -0.7898   55.5434 N.am    1  ZINC001078748831   -0.7000
      9 C9        -10.7092   -0.6905   56.6332 C.3     1  ZINC001078748831    0.1500
     10 H10       -11.7119   -0.4437   56.2843 H       1  ZINC001078748831    0.1100
     11 C11       -10.2328    0.1800   57.8102 C.3     1  ZINC001078748831   -0.1800
     12 C12        -9.6301   -1.0998   58.4177 C.3     1  ZINC001078748831    0.0800
     13 H13        -8.6021   -1.2887   58.1085 H       1  ZINC001078748831    0.1000
     14 N14        -9.8187   -1.2082   59.8705 N.3     1  ZINC001078748831   -0.6700
     15 C15        -8.5309   -1.3734   60.5577 C.3     1  ZINC001078748831    0.1400
     16 C16        -8.4607   -0.4260   61.7276 C.2     1  ZINC001078748831    0.0600
     17 N17        -7.9938   -0.7525   62.9007 N.2     1  ZINC001078748831   -0.5700
     18 S18        -8.0894    0.4945   63.8333 S.3     1  ZINC001078748831    0.6800
     19 N19        -8.7172    1.5008   62.8200 N.2     1  ZINC001078748831   -0.5700
     20 C20        -8.8780    0.8898   61.6790 C.2     1  ZINC001078748831    0.0500
     21 C21       -10.6700   -1.8737   57.6010 C.3     1  ZINC001078748831   -0.1000
     22 C22       -11.9469   -2.4084   58.2503 C.3     1  ZINC001078748831   -0.1000
     23 C23       -11.9078   -3.5318   57.1983 C.3     1  ZINC001078748831   -0.1400
     24 C24       -10.3898   -3.2930   57.1060 C.3     1  ZINC001078748831   -0.1200
     25 N25        -7.8719   -0.7883   53.2388 N.2     1  ZINC001078748831   -0.2500
     26 H26        -5.4332   -1.7740   51.8995 H       1  ZINC001078748831    0.1000
     27 H27        -5.8345   -0.5076   50.7148 H       1  ZINC001078748831    0.1100
     28 H28        -5.5018   -0.0695   52.4077 H       1  ZINC001078748831    0.1100
     29 H29       -10.3830   -1.6141   51.3911 H       1  ZINC001078748831    0.2100
     30 H30        -8.7852   -0.7697   55.7387 H       1  ZINC001078748831    0.4100
     31 H31        -9.4862    0.9227   57.5291 H       1  ZINC001078748831    0.0700
     32 H32       -11.0478    0.6004   58.3994 H       1  ZINC001078748831    0.1000
     33 H33       -10.3210   -0.4106   60.2304 H       1  ZINC001078748831    0.3500
     34 H34        -8.4385   -2.3991   60.9147 H       1  ZINC001078748831    0.1000
     35 H35        -7.7185   -1.1554   59.8644 H       1  ZINC001078748831    0.0600
     36 H36        -9.2951    1.3571   60.7993 H       1  ZINC001078748831    0.2000
     37 H37       -11.8038   -2.7605   59.2719 H       1  ZINC001078748831    0.1000
     38 H38       -12.8027   -1.7416   58.1467 H       1  ZINC001078748831    0.0700
     39 H39       -12.1717   -4.5115   57.5966 H       1  ZINC001078748831    0.0700
     40 H40       -12.4441   -3.2889   56.2809 H       1  ZINC001078748831    0.0800
     41 H41       -10.0018   -3.3327   56.0882 H       1  ZINC001078748831    0.0700
     42 H42        -9.8090   -3.8938   57.8059 H       1  ZINC001078748831    0.0900
@<TRIPOS>BOND
     1     1     2    1
     2     1    26    1
     3     1    27    1
     4     1    28    1
     5     2    25    1
     6     2     3    1
     7     3     4    2
     8     4     5    1
     9     4    29    1
    10     5     6    1
    11     5    25    2
    12     6     7    2
    13     6     8   am
    14     8     9    1
    15     8    30    1
    16     9    10    1
    17     9    21    1
    18     9    11    1
    19    11    12    1
    20    11    31    1
    21    11    32    1
    22    12    13    1
    23    12    14    1
    24    12    21    1
    25    14    15    1
    26    14    33    1
    27    15    16    1
    28    15    34    1
    29    15    35    1
    30    16    20    1
    31    16    17    2
    32    17    18    1
    33    18    19    1
    34    19    20    2
    35    20    36    1
    36    21    24    1
    37    21    22    1
    38    22    23    1
    39    22    37    1
    40    22    38    1
    41    23    24    1
    42    23    39    1
    43    23    40    1
    44    24    41    1
    45    24    42    1
@<TRIPOS>SUBSTRUCTURE
     1 ZINC001078748831        1 TEMP              0 ****  ****    0 ROOT


##########                                Name:    ZINC001345966764
##########                DOCK_Rotatable_Bonds:                  10
##########                         Heavy_Atoms:                  22
##########                    Molecular_Weight:             333.258
##########                DOCK_Rotatable_Bonds:                  10
##########                       Formal_Charge:           0.0099997
##########                     HBond_Acceptors:                  11
##########                        HBond_Donors:                   4
##########                         Heavy_Atoms:                  22
##########                          Grid_Score:          -32.062637
##########                     Grid_vdw_energy:          -31.614971
##########                      Grid_es_energy:           -0.447667
##########           Internal_energy_repulsive:            5.944102

@<TRIPOS>MOLECULE
ZINC001345966764
 38 38 1 0 0
SMALL
USER_CHARGES


@<TRIPOS>ATOM
      1 N1        -10.1581   -1.6013   52.0180 N.3     1  ZINC001345966764   -0.8400
      2 C2         -8.8381   -1.3908   52.6273 C.3     1  ZINC001345966764    0.0200
      3 C3         -7.8938   -0.7694   51.5963 C.3     1  ZINC001345966764    0.2800
      4 F4         -7.9175   -1.5313   50.4232 F       1  ZINC001345966764   -0.1900
      5 F5         -8.3075    0.5367   51.3125 F       1  ZINC001345966764   -0.1800
      6 C6         -6.4711   -0.7428   52.1586 C.3     1  ZINC001345966764    0.0800
      7 N7         -5.6120    0.0505   51.2760 N.am    1  ZINC001345966764   -0.7000
      8 C8         -5.4350    1.3656   51.5119 C.2     1  ZINC001345966764    0.5100
      9 O9         -5.9886    1.8930   52.4542 O.2     1  ZINC001345966764   -0.5100
     10 C10        -4.5572    2.1746   50.6126 C.2     1  ZINC001345966764    0.5100
     11 O11        -4.3438    3.3425   50.8632 O.2     1  ZINC001345966764   -0.5100
     12 N12        -4.0027    1.6067   49.5234 N.am    1  ZINC001345966764   -0.7000
     13 C13        -3.1407    2.3992   48.6428 C.3     1  ZINC001345966764    0.1200
     14 C14        -2.6071    1.5109   47.5171 C.3     1  ZINC001345966764    0.0600
     15 H15        -3.3862    1.3283   46.7770 H       1  ZINC001345966764    0.0900
     16 C16        -1.3766    2.1665   46.8521 C.3     1  ZINC001345966764   -0.1400
     17 C17        -0.4432    0.9768   46.5343 C.3     1  ZINC001345966764   -0.1500
     18 C18        -1.2203   -0.2567   47.0450 C.3     1  ZINC001345966764    0.0300
     19 H19        -1.7859   -0.7121   46.2321 H       1  ZINC001345966764    0.1200
     20 C20        -0.2581   -1.2756   47.6590 C.3     1  ZINC001345966764    0.4600
     21 F21        -0.8273   -2.5520   47.5952 F       1  ZINC001345966764   -0.1700
     22 F22         0.9468   -1.2663   46.9483 F       1  ZINC001345966764   -0.1700
     23 F23        -0.0139   -0.9402   48.9951 F       1  ZINC001345966764   -0.1700
     24 O24        -2.1187    0.2611   48.0516 O.3     1  ZINC001345966764   -0.3500
     25 H25       -10.8297   -1.9064   52.7064 H       1  ZINC001345966764    0.3500
     26 H26       -10.4762   -0.7675   51.5471 H       1  ZINC001345966764    0.3600
     27 H27        -8.9350   -0.7208   53.4816 H       1  ZINC001345966764    0.1100
     28 H28        -8.4346   -2.3472   52.9596 H       1  ZINC001345966764    0.0700
     29 H29        -6.4817   -0.2962   53.1528 H       1  ZINC001345966764    0.1100
     30 H30        -6.0863   -1.7607   52.2215 H       1  ZINC001345966764    0.1100
     31 H31        -5.1705   -0.3707   50.5221 H       1  ZINC001345966764    0.4200
     32 H32        -4.1742    0.6735   49.3224 H       1  ZINC001345966764    0.4200
     33 H33        -3.7152    3.2211   48.2156 H       1  ZINC001345966764    0.1000
     34 H34        -2.3050    2.7997   49.2167 H       1  ZINC001345966764    0.0900
     35 H35        -1.6662    2.6801   45.9354 H       1  ZINC001345966764    0.0900
     36 H36        -0.8926    2.8580   47.5419 H       1  ZINC001345966764    0.0900
     37 H37        -0.2713    0.9024   45.4605 H       1  ZINC001345966764    0.1000
     38 H38         0.5021    1.0802   47.0671 H       1  ZINC001345966764    0.0900
@<TRIPOS>BOND
     1     1     2    1
     2     1    25    1
     3     1    26    1
     4     2     3    1
     5     2    27    1
     6     2    28    1
     7     3     4    1
     8     3     5    1
     9     3     6    1
    10     6     7    1
    11     6    29    1
    12     6    30    1
    13     7     8   am
    14     7    31    1
    15     8     9    2
    16     8    10    1
    17    10    11    2
    18    10    12   am
    19    12    13    1
    20    12    32    1
    21    13    14    1
    22    13    33    1
    23    13    34    1
    24    14    15    1
    25    14    24    1
    26    14    16    1
    27    16    17    1
    28    16    35    1
    29    16    36    1
    30    17    18    1
    31    17    37    1
    32    17    38    1
    33    18    19    1
    34    18    20    1
    35    18    24    1
    36    20    21    1
    37    20    22    1
    38    20    23    1
@<TRIPOS>SUBSTRUCTURE
     1 ZINC001345966764        1 TEMP              0 ****  ****    0 ROOT


##########                                Name:    ZINC000787750060
##########                DOCK_Rotatable_Bonds:                   6
##########                         Heavy_Atoms:                  24
##########                    Molecular_Weight:             347.438
##########                DOCK_Rotatable_Bonds:                   6
##########                       Formal_Charge:           0.0200003
##########                     HBond_Acceptors:                   7
##########                        HBond_Donors:                   2
##########                         Heavy_Atoms:                  24
##########                          Grid_Score:          -32.055405
##########                     Grid_vdw_energy:          -32.063984
##########                      Grid_es_energy:            0.008578
##########           Internal_energy_repulsive:            5.085746

@<TRIPOS>MOLECULE
ZINC000787750060
 45 47 1 0 0
SMALL
USER_CHARGES


@<TRIPOS>ATOM
      1 C1         -1.0624    0.5315   44.6232 C.3     1  ZINC000787750060   -0.1200
      2 C2         -1.4049    1.0068   46.0118 C.ar    1  ZINC000787750060   -0.0400
      3 C3         -2.2591    2.0841   46.1795 C.ar    1  ZINC000787750060   -0.1300
      4 C4         -2.5791    2.5273   47.4447 C.ar    1  ZINC000787750060   -0.0700
      5 C5         -2.0407    1.8878   48.5636 C.ar    1  ZINC000787750060   -0.1700
      6 C6         -2.3794    2.3566   49.9209 C.2     1  ZINC000787750060    0.5600
      7 O7         -1.5104    2.8039   50.6442 O.2     1  ZINC000787750060   -0.5200
      8 N8         -3.6523    2.2892   50.3589 N.am    1  ZINC000787750060   -0.7300
      9 C9         -3.9883    2.7531   51.7073 C.3     1  ZINC000787750060    0.2100
     10 C10        -5.2687    2.0991   52.1589 C.2     1  ZINC000787750060   -0.2800
     11 C11        -6.1111    2.5772   53.0751 C.2     1  ZINC000787750060    0.0900
     12 N12        -7.1688    1.8177   53.2987 N.2     1  ZINC000787750060   -0.5200
     13 C13        -7.2579    0.7204   52.6133 C.2     1  ZINC000787750060    0.2300
     14 N14        -8.2928   -0.1962   52.7129 N.3     1  ZINC000787750060   -0.4500
     15 C15        -9.2903    0.0183   51.6545 C.3     1  ZINC000787750060    0.0200
     16 C16       -10.3816   -1.0497   51.7651 C.3     1  ZINC000787750060    0.0600
     17 O17       -10.9598   -0.9997   53.0723 O.3     1  ZINC000787750060   -0.3800
     18 C18       -10.0166   -1.2054   54.1273 C.3     1  ZINC000787750060    0.0600
     19 C19        -8.9215   -0.1389   54.0405 C.3     1  ZINC000787750060    0.0300
     20 S20        -5.9171    0.5734   51.5627 S.3     1  ZINC000787750060    0.1700
     21 C21        -1.1768    0.7976   48.3895 C.ar    1  ZINC000787750060    0.1700
     22 O22        -0.6476    0.1685   49.4687 O.3     1  ZINC000787750060   -0.4700
     23 C23        -0.8695    0.3621   47.1095 C.ar    1  ZINC000787750060   -0.1200
     24 C24         0.0585   -0.8093   46.9156 C.3     1  ZINC000787750060   -0.1200
     25 H25        -1.7862   -0.2200   44.3076 H       1  ZINC000787750060    0.0800
     26 H26        -1.0902    1.3749   43.9333 H       1  ZINC000787750060    0.0700
     27 H27        -0.0633    0.0958   44.6244 H       1  ZINC000787750060    0.0800
     28 H28        -2.6760    2.5793   45.3150 H       1  ZINC000787750060    0.1300
     29 H29        -3.2452    3.3681   47.5708 H       1  ZINC000787750060    0.1300
     30 H30        -4.3457    1.9335   49.7815 H       1  ZINC000787750060    0.4000
     31 H31        -3.1837    2.4889   52.3935 H       1  ZINC000787750060    0.0900
     32 H32        -4.1169    3.8354   51.6977 H       1  ZINC000787750060    0.0800
     33 H33        -5.9425    3.5100   53.5927 H       1  ZINC000787750060    0.1800
     34 H34        -9.7354    1.0067   51.7688 H       1  ZINC000787750060    0.0600
     35 H35        -8.8080   -0.0538   50.6797 H       1  ZINC000787750060    0.1000
     36 H36       -11.1529   -0.8607   51.0184 H       1  ZINC000787750060    0.1100
     37 H37        -9.9455   -2.0345   51.5975 H       1  ZINC000787750060    0.0700
     38 H38       -10.5237   -1.1288   55.0891 H       1  ZINC000787750060    0.1100
     39 H39        -9.5697   -2.1946   54.0284 H       1  ZINC000787750060    0.0600
     40 H40        -8.1699   -0.3258   54.8076 H       1  ZINC000787750060    0.1000
     41 H41        -9.3607    0.8470   54.1931 H       1  ZINC000787750060    0.0700
     42 H42        -1.2543    0.0961   50.2184 H       1  ZINC000787750060    0.4000
     43 H43        -0.5211   -1.7322   46.8939 H       1  ZINC000787750060    0.0700
     44 H44         0.5956   -0.6954   45.9740 H       1  ZINC000787750060    0.0700
     45 H45         0.7721   -0.8477   47.7386 H       1  ZINC000787750060    0.0800
@<TRIPOS>BOND
     1     1     2    1
     2     1    25    1
     3     1    26    1
     4     1    27    1
     5     2    23   ar
     6     2     3   ar
     7     3     4   ar
     8     3    28    1
     9     4     5   ar
    10     4    29    1
    11     5     6    1
    12     5    21   ar
    13     6     7    2
    14     6     8   am
    15     8     9    1
    16     8    30    1
    17     9    10    1
    18     9    31    1
    19     9    32    1
    20    10    20    1
    21    10    11    2
    22    11    12    1
    23    11    33    1
    24    12    13    2
    25    13    14    1
    26    13    20    1
    27    14    19    1
    28    14    15    1
    29    15    16    1
    30    15    34    1
    31    15    35    1
    32    16    17    1
    33    16    36    1
    34    16    37    1
    35    17    18    1
    36    18    19    1
    37    18    38    1
    38    18    39    1
    39    19    40    1
    40    19    41    1
    41    21    22    1
    42    21    23   ar
    43    22    42    1
    44    23    24    1
    45    24    43    1
    46    24    44    1
    47    24    45    1
@<TRIPOS>SUBSTRUCTURE
     1 ZINC000787750060        1 TEMP              0 ****  ****    0 ROOT


##########                                Name:    ZINC000624498741
##########                DOCK_Rotatable_Bonds:                   7
##########                         Heavy_Atoms:                  27
##########                    Molecular_Weight:             379.339
##########                DOCK_Rotatable_Bonds:                   7
##########                       Formal_Charge:           0.0300003
##########                     HBond_Acceptors:                   9
##########                        HBond_Donors:                   0
##########                         Heavy_Atoms:                  27
##########                          Grid_Score:          -32.026573
##########                     Grid_vdw_energy:          -31.360977
##########                      Grid_es_energy:           -0.665596
##########           Internal_energy_repulsive:           11.353860

@<TRIPOS>MOLECULE
ZINC000624498741
 43 45 1 0 0
SMALL
USER_CHARGES


@<TRIPOS>ATOM
      1 C1         -0.3880   -1.2262   47.4315 C.3     1  ZINC000624498741   -0.1100
      2 C2         -1.3504   -0.0883   47.6554 C.ar    1  ZINC000624498741   -0.0900
      3 C3         -1.4993    0.4488   48.9149 C.ar    1  ZINC000624498741   -0.0400
      4 C4         -2.3915    1.5039   49.1214 C.ar    1  ZINC000624498741   -0.0500
      5 C5         -2.5537    2.0830   50.4699 C.2     1  ZINC000624498741    0.2300
      6 N6         -3.6897    2.2554   51.1239 N.2     1  ZINC000624498741   -0.4700
      7 C7         -3.3481    2.8082   52.2982 C.2     1  ZINC000624498741    0.1800
      8 C8         -4.2924    3.1993   53.4054 C.3     1  ZINC000624498741   -0.0300
      9 C9         -5.6501    2.5320   53.1773 C.3     1  ZINC000624498741   -0.1300
     10 C10        -6.4624    2.5721   54.4733 C.3     1  ZINC000624498741    0.0900
     11 N11        -7.4879    1.5264   54.4396 N.am    1  ZINC000624498741   -0.5000
     12 C12        -8.1660    1.2883   53.2879 C.2     1  ZINC000624498741    0.1300
     13 C13        -9.1179    0.3277   53.2324 C.2     1  ZINC000624498741   -0.2300
     14 C14        -9.4116   -0.4333   54.3726 C.2     1  ZINC000624498741   -0.0200
     15 C15        -8.7289   -0.1929   55.5287 C.2     1  ZINC000624498741   -0.2400
     16 C16        -7.7432    0.8085   55.5499 C.2     1  ZINC000624498741    0.5100
     17 O17        -7.1247    1.0341   56.5778 O.2     1  ZINC000624498741   -0.5500
     18 N18        -2.0549    2.9446   52.3080 N.2     1  ZINC000624498741   -0.3700
     19 O19        -1.5762    2.5315   51.2731 O.3     1  ZINC000624498741    0.0900
     20 C20        -3.1291    2.0098   48.0487 C.ar    1  ZINC000624498741   -0.0200
     21 C21        -2.9744    1.4670   46.7918 C.ar    1  ZINC000624498741   -0.1900
     22 C22        -2.0823    0.4213   46.5897 C.ar    1  ZINC000624498741    0.1300
     23 O23        -1.9328   -0.1109   45.3496 O.3     1  ZINC000624498741   -0.3000
     24 C24        -1.1722    0.6462   44.4060 C.3     1  ZINC000624498741    0.6000
     25 F25        -1.6493    1.9608   44.3699 F       1  ZINC000624498741   -0.1600
     26 F26         0.1739    0.6490   44.7870 F       1  ZINC000624498741   -0.1300
     27 F27        -1.2966    0.0700   43.1373 F       1  ZINC000624498741   -0.1600
     28 H28         0.5954   -0.8268   47.1836 H       1  ZINC000624498741    0.0800
     29 H29        -0.3182   -1.8268   48.3383 H       1  ZINC000624498741    0.0800
     30 H30        -0.7451   -1.8479   46.6104 H       1  ZINC000624498741    0.0800
     31 H31        -0.9274    0.0546   49.7419 H       1  ZINC000624498741    0.1500
     32 H32        -3.8843    2.8746   54.3626 H       1  ZINC000624498741    0.1000
     33 H33        -4.4163    4.2822   53.4118 H       1  ZINC000624498741    0.1000
     34 H34        -6.1896    3.0643   52.3938 H       1  ZINC000624498741    0.0800
     35 H35        -5.4995    1.4956   52.8750 H       1  ZINC000624498741    0.0800
     36 H36        -5.8001    2.4043   55.3225 H       1  ZINC000624498741    0.1100
     37 H37        -6.9405    3.5468   54.5724 H       1  ZINC000624498741    0.1000
     38 H38        -7.9437    1.8716   52.4066 H       1  ZINC000624498741    0.1600
     39 H39        -9.6513    0.1480   52.3106 H       1  ZINC000624498741    0.1500
     40 H40       -10.1702   -1.2012   54.3360 H       1  ZINC000624498741    0.1400
     41 H41        -8.9410   -0.7688   56.4174 H       1  ZINC000624498741    0.1500
     42 H42        -3.8201    2.8251   48.2043 H       1  ZINC000624498741    0.1500
     43 H43        -3.5447    1.8574   45.9618 H       1  ZINC000624498741    0.1500
@<TRIPOS>BOND
     1     1     2    1
     2     1    28    1
     3     1    29    1
     4     1    30    1
     5     2    22   ar
     6     2     3   ar
     7     3     4   ar
     8     3    31    1
     9     4     5    1
    10     4    20   ar
    11     5    19    1
    12     5     6    2
    13     6     7    1
    14     7     8    1
    15     7    18    2
    16     8     9    1
    17     8    32    1
    18     8    33    1
    19     9    10    1
    20     9    34    1
    21     9    35    1
    22    10    11    1
    23    10    36    1
    24    10    37    1
    25    11    16   am
    26    11    12    1
    27    12    13    2
    28    12    38    1
    29    13    14    1
    30    13    39    1
    31    14    15    2
    32    14    40    1
    33    15    16    1
    34    15    41    1
    35    16    17    2
    36    18    19    1
    37    20    21   ar
    38    20    42    1
    39    21    22   ar
    40    21    43    1
    41    22    23    1
    42    23    24    1
    43    24    25    1
    44    24    26    1
    45    24    27    1
@<TRIPOS>SUBSTRUCTURE
     1 ZINC000624498741        1 TEMP              0 ****  ****    0 ROOT


##########                                Name:    ZINC000047262406
##########                DOCK_Rotatable_Bonds:                   6
##########                         Heavy_Atoms:                  28
##########                    Molecular_Weight:             417.919
##########                DOCK_Rotatable_Bonds:                   6
##########                       Formal_Charge:          -0.0100002
##########                     HBond_Acceptors:                   9
##########                        HBond_Donors:                   1
##########                         Heavy_Atoms:                  28
##########                          Grid_Score:          -32.018322
##########                     Grid_vdw_energy:          -31.552618
##########                      Grid_es_energy:           -0.465703
##########           Internal_energy_repulsive:           12.184428

@<TRIPOS>MOLECULE
ZINC000047262406
 48 51 1 0 0
SMALL
USER_CHARGES


@<TRIPOS>ATOM
      1 C1        -13.1023   -3.6905   57.3388 C.3     1  ZINC000047262406   -0.1500
      2 C2        -12.5437   -2.2683   57.2589 C.3     1  ZINC000047262406    0.1800
      3 H3        -13.3367   -1.5829   56.9597 H       1  ZINC000047262406    0.0800
      4 C4        -11.4305   -2.2222   56.2441 C.2     1  ZINC000047262406    0.1700
      5 N5        -10.6866   -3.2256   55.8726 N.2     1  ZINC000047262406   -0.2500
      6 N6         -9.8370   -2.8297   54.9913 N.2     1  ZINC000047262406   -0.2700
      7 C7        -10.0117   -1.5454   54.7676 C.2     1  ZINC000047262406    0.2400
      8 C8         -9.2455   -0.7104   53.8304 C.2     1  ZINC000047262406   -0.1500
      9 C9         -9.4421    0.6202   53.6195 C.2     1  ZINC000047262406   -0.0600
     10 C10        -8.5951    1.1811   52.6893 C.2     1  ZINC000047262406   -0.1400
     11 C11        -7.7151    0.3380   52.1394 C.2     1  ZINC000047262406   -0.1900
     12 S12        -7.9264   -1.2728   52.8118 S.3     1  ZINC000047262406    0.1700
     13 O13       -11.0295   -1.1388   55.5542 O.3     1  ZINC000047262406   -0.2200
     14 N14       -12.0239   -1.8717   58.5743 N.3     1  ZINC000047262406   -0.5200
     15 C15       -11.8741   -0.4136   58.6632 C.3     1  ZINC000047262406    0.0500
     16 C16       -11.4715   -0.0267   60.0880 C.3     1  ZINC000047262406   -0.1000
     17 C17       -10.1521   -0.7168   60.4455 C.3     1  ZINC000047262406   -0.1100
     18 C18        -9.7810   -0.3874   61.8685 C.2     1  ZINC000047262406    0.5100
     19 O19       -10.6478   -0.1361   62.6786 O.2     1  ZINC000047262406   -0.4600
     20 N20        -8.4857   -0.3723   62.2408 N.am    1  ZINC000047262406   -0.6600
     21 C21        -8.1423   -0.0675   63.5577 C.ar    1  ZINC000047262406    0.3600
     22 C22        -7.6091    1.1802   63.8586 C.ar    1  ZINC000047262406   -0.2000
     23 C23        -7.2728    1.4705   65.1694 C.ar    1  ZINC000047262406   -0.0400
     24 C24        -7.4825    0.4976   66.1380 C.ar    1  ZINC000047262406   -0.1200
     25 Cl25       -7.0786    0.8100   67.7972 Cl      1  ZINC000047262406   -0.0500
     26 C26        -8.0169   -0.7220   65.7667 C.ar    1  ZINC000047262406    0.1500
     27 N27        -8.3321   -0.9673   64.5096 N.ar    1  ZINC000047262406   -0.4600
     28 C28       -10.3213   -2.2315   60.2982 C.3     1  ZINC000047262406   -0.1100
     29 C29       -10.7573   -2.5544   58.8673 C.3     1  ZINC000047262406    0.0600
     30 H30       -13.9074   -3.7239   58.0729 H       1  ZINC000047262406    0.0800
     31 H31       -13.4880   -3.9848   56.3628 H       1  ZINC000047262406    0.0700
     32 H32       -12.3093   -4.3760   57.6379 H       1  ZINC000047262406    0.0800
     33 H33       -10.1997    1.1887   54.1384 H       1  ZINC000047262406    0.1600
     34 H34        -8.6390    2.2269   52.4229 H       1  ZINC000047262406    0.1600
     35 H35        -6.9803    0.6075   51.3953 H       1  ZINC000047262406    0.1800
     36 H36       -11.1035   -0.0845   57.9660 H       1  ZINC000047262406    0.0400
     37 H37       -12.8204    0.0648   58.4106 H       1  ZINC000047262406    0.0900
     38 H38       -11.3451    1.0542   60.1496 H       1  ZINC000047262406    0.0800
     39 H39       -12.2480   -0.3432   60.7843 H       1  ZINC000047262406    0.0900
     40 H40        -9.3662   -0.3701   59.7746 H       1  ZINC000047262406    0.1000
     41 H41        -7.7925   -0.5732   61.5928 H       1  ZINC000047262406    0.4200
     42 H42        -7.4590    1.9134   63.0799 H       1  ZINC000047262406    0.1500
     43 H43        -6.8564    2.4315   65.4329 H       1  ZINC000047262406    0.1500
     44 H44        -8.1816   -1.4822   66.5159 H       1  ZINC000047262406    0.1700
     45 H45        -9.3732   -2.7257   60.5101 H       1  ZINC000047262406    0.0700
     46 H46       -11.0798   -2.5827   60.9978 H       1  ZINC000047262406    0.0800
     47 H47       -10.8923   -3.6310   58.7631 H       1  ZINC000047262406    0.0700
     48 H48        -9.9919   -2.2153   58.1692 H       1  ZINC000047262406    0.0400
@<TRIPOS>BOND
     1     1     2    1
     2     1    30    1
     3     1    31    1
     4     1    32    1
     5     2     3    1
     6     2     4    1
     7     2    14    1
     8     4    13    1
     9     4     5    2
    10     5     6    1
    11     6     7    2
    12     7     8    1
    13     7    13    1
    14     8    12    1
    15     8     9    2
    16     9    10    1
    17     9    33    1
    18    10    11    2
    19    10    34    1
    20    11    12    1
    21    11    35    1
    22    14    29    1
    23    14    15    1
    24    15    16    1
    25    15    36    1
    26    15    37    1
    27    16    17    1
    28    16    38    1
    29    16    39    1
    30    17    18    1
    31    17    28    1
    32    17    40    1
    33    18    19    2
    34    18    20   am
    35    20    21    1
    36    20    41    1
    37    21    27   ar
    38    21    22   ar
    39    22    23   ar
    40    22    42    1
    41    23    24   ar
    42    23    43    1
    43    24    25    1
    44    24    26   ar
    45    26    27   ar
    46    26    44    1
    47    28    29    1
    48    28    45    1
    49    28    46    1
    50    29    47    1
    51    29    48    1
@<TRIPOS>SUBSTRUCTURE
     1 ZINC000047262406        1 TEMP              0 ****  ****    0 ROOT


##########                                Name:    ZINC001492779707
##########                DOCK_Rotatable_Bonds:                   8
##########                         Heavy_Atoms:                  27
##########                    Molecular_Weight:             374.483
##########                DOCK_Rotatable_Bonds:                   8
##########                       Formal_Charge:           0.0199998
##########                     HBond_Acceptors:                   7
##########                        HBond_Donors:                   0
##########                         Heavy_Atoms:                  27
##########                          Grid_Score:          -32.013371
##########                     Grid_vdw_energy:          -31.751673
##########                      Grid_es_energy:           -0.261698
##########           Internal_energy_repulsive:           11.733462

@<TRIPOS>MOLECULE
ZINC001492779707
 57 59 1 0 0
SMALL
USER_CHARGES


@<TRIPOS>ATOM
      1 C1        -15.5819   -3.1842   59.2878 C.3     1  ZINC001492779707   -0.0700
      2 C2        -14.3789   -3.2736   58.3848 C.2     1  ZINC001492779707    0.1800
      3 N3        -14.0320   -4.2993   57.6598 N.2     1  ZINC001492779707   -0.2900
      4 N4        -12.9544   -4.0359   57.0106 N.2     1  ZINC001492779707   -0.3100
      5 C5        -12.5528   -2.8180   57.2888 C.2     1  ZINC001492779707    0.3400
      6 N6        -11.4305   -2.1842   56.7796 N.3     1  ZINC001492779707   -0.4600
      7 C7        -10.2181   -2.9726   57.0378 C.3     1  ZINC001492779707    0.0300
      8 C8        -11.5855   -1.9117   55.3445 C.3     1  ZINC001492779707    0.1100
      9 C9        -10.7645   -0.7044   54.9710 C.ar    1  ZINC001492779707   -0.0400
     10 C10       -11.2979    0.5634   55.1101 C.ar    1  ZINC001492779707   -0.1300
     11 C11       -10.5472    1.6734   54.7683 C.ar    1  ZINC001492779707   -0.0800
     12 C12        -9.2621    1.5176   54.2867 C.ar    1  ZINC001492779707   -0.2100
     13 C13        -8.7245    0.2462   54.1461 C.ar    1  ZINC001492779707    0.1300
     14 O14        -7.4600    0.0904   53.6729 O.3     1  ZINC001492779707   -0.3100
     15 C15        -7.3082   -0.0381   52.2577 C.3     1  ZINC001492779707    0.0800
     16 C16        -5.8302    0.1043   51.8885 C.3     1  ZINC001492779707   -0.1500
     17 C17        -7.8149   -1.4115   51.8131 C.3     1  ZINC001492779707   -0.1800
     18 C18        -9.4774   -0.8652   54.4950 C.ar    1  ZINC001492779707   -0.1400
     19 N19       -13.4521   -2.2915   58.1696 N.pl3   1  ZINC001492779707   -0.4600
     20 C20       -13.4251   -0.9546   58.7683 C.3     1  ZINC001492779707    0.1200
     21 C21       -12.9961   -1.0603   60.2331 C.3     1  ZINC001492779707   -0.1200
     22 C22       -11.4981   -0.7712   60.3480 C.3     1  ZINC001492779707    0.0600
     23 H23       -11.1713   -0.1932   59.4836 H       1  ZINC001492779707    0.0800
     24 C24       -11.2271    0.0246   61.6281 C.3     1  ZINC001492779707    0.0300
     25 O25        -9.8152    0.1940   61.7854 O.3     1  ZINC001492779707   -0.3800
     26 C26        -9.0928   -1.0398   61.8380 C.3     1  ZINC001492779707    0.0200
     27 C27        -9.3637   -1.8356   60.5580 C.3     1  ZINC001492779707    0.0300
     28 O28       -10.7756   -2.0051   60.3992 O.3     1  ZINC001492779707   -0.3800
     29 H29       -16.4331   -2.8046   58.7225 H       1  ZINC001492779707    0.0900
     30 H30       -15.8175   -4.1742   59.6785 H       1  ZINC001492779707    0.1000
     31 H31       -15.3654   -2.5090   60.1157 H       1  ZINC001492779707    0.0800
     32 H32       -10.2643   -3.9050   56.4752 H       1  ZINC001492779707    0.0500
     33 H33        -9.3417   -2.4038   56.7270 H       1  ZINC001492779707    0.0900
     34 H34       -10.1486   -3.1939   58.1029 H       1  ZINC001492779707    0.0700
     35 H35       -11.2445   -2.7742   54.7720 H       1  ZINC001492779707    0.0700
     36 H36       -12.6353   -1.7202   55.1224 H       1  ZINC001492779707    0.0900
     37 H37       -12.3027    0.6872   55.4862 H       1  ZINC001492779707    0.1200
     38 H38       -10.9663    2.6627   54.8776 H       1  ZINC001492779707    0.1300
     39 H39        -8.6763    2.3847   54.0195 H       1  ZINC001492779707    0.1300
     40 H40        -7.8841    0.7409   51.7583 H       1  ZINC001492779707    0.0700
     41 H41        -5.2542   -0.6747   52.3880 H       1  ZINC001492779707    0.0700
     42 H42        -5.7143    0.0063   50.8091 H       1  ZINC001492779707    0.0800
     43 H43        -5.4692    1.0828   52.2054 H       1  ZINC001492779707    0.0700
     44 H44        -8.8678   -1.5130   52.0762 H       1  ZINC001492779707    0.0600
     45 H45        -7.6990   -1.5095   50.7336 H       1  ZINC001492779707    0.0700
     46 H46        -7.2390   -2.1905   52.3125 H       1  ZINC001492779707    0.0700
     47 H47        -9.0612   -1.8558   54.3865 H       1  ZINC001492779707    0.1300
     48 H48       -12.7166   -0.3281   58.2264 H       1  ZINC001492779707    0.1000
     49 H49       -14.4192   -0.5113   58.7120 H       1  ZINC001492779707    0.1000
     50 H50       -13.5526   -0.3360   60.8279 H       1  ZINC001492779707    0.0900
     51 H51       -13.2013   -2.0660   60.6001 H       1  ZINC001492779707    0.0800
     52 H52       -11.7057    1.0014   61.5578 H       1  ZINC001492779707    0.1100
     53 H53       -11.6268   -0.5171   62.4853 H       1  ZINC001492779707    0.0600
     54 H54        -8.0255   -0.8337   61.9198 H       1  ZINC001492779707    0.1100
     55 H55        -9.4206   -1.6173   62.7023 H       1  ZINC001492779707    0.0600
     56 H56        -8.9641   -1.2939   59.7007 H       1  ZINC001492779707    0.0600
     57 H57        -8.8851   -2.8124   60.6282 H       1  ZINC001492779707    0.1100
@<TRIPOS>BOND
     1     1     2    1
     2     1    29    1
     3     1    30    1
     4     1    31    1
     5     2    19    1
     6     2     3    2
     7     3     4    1
     8     4     5    2
     9     5     6    1
    10     5    19    1
    11     6     7    1
    12     6     8    1
    13     7    32    1
    14     7    33    1
    15     7    34    1
    16     8     9    1
    17     8    35    1
    18     8    36    1
    19     9    18   ar
    20     9    10   ar
    21    10    11   ar
    22    10    37    1
    23    11    12   ar
    24    11    38    1
    25    12    13   ar
    26    12    39    1
    27    13    14    1
    28    13    18   ar
    29    14    15    1
    30    15    16    1
    31    15    17    1
    32    15    40    1
    33    16    41    1
    34    16    42    1
    35    16    43    1
    36    17    44    1
    37    17    45    1
    38    17    46    1
    39    18    47    1
    40    19    20    1
    41    20    21    1
    42    20    48    1
    43    20    49    1
    44    21    22    1
    45    21    50    1
    46    21    51    1
    47    22    23    1
    48    22    28    1
    49    22    24    1
    50    24    25    1
    51    24    52    1
    52    24    53    1
    53    25    26    1
    54    26    27    1
    55    26    54    1
    56    26    55    1
    57    27    28    1
    58    27    56    1
    59    27    57    1
@<TRIPOS>SUBSTRUCTURE
     1 ZINC001492779707        1 TEMP              0 ****  ****    0 ROOT


##########                                Name:    ZINC000193795672
##########                DOCK_Rotatable_Bonds:                  10
##########                         Heavy_Atoms:                  23
##########                    Molecular_Weight:              332.47
##########                DOCK_Rotatable_Bonds:                  10
##########                       Formal_Charge:        -2.98023e-07
##########                     HBond_Acceptors:                   6
##########                        HBond_Donors:                   3
##########                         Heavy_Atoms:                  23
##########                          Grid_Score:          -32.012661
##########                     Grid_vdw_energy:          -31.188753
##########                      Grid_es_energy:           -0.823909
##########           Internal_energy_repulsive:           13.975475

@<TRIPOS>MOLECULE
ZINC000193795672
 47 48 1 0 0
SMALL
USER_CHARGES


@<TRIPOS>ATOM
      1 C1          0.6679   -1.6101   48.0691 C.3     1  <0>        -0.1000
      2 C2         -0.3968   -0.5664   48.2888 C.ar    1  <0>        -0.2000
      3 C3         -0.3021    0.3183   49.3546 C.ar    1  <0>        -0.0300
      4 C4         -1.3006    1.2614   49.5204 C.ar    1  <0>        -0.2400
      5 C5         -2.3595    1.2912   48.6190 C.ar    1  <0>         0.4000
      6 N6         -3.3696    2.2336   48.7738 N.pl3   1  <0>        -0.7300
      7 C7         -3.9229    2.5027   50.1033 C.3     1  <0>         0.1300
      8 C8         -4.8233    1.3401   50.5259 C.3     1  <0>        -0.1400
      9 C9         -5.2733    1.5439   51.9740 C.3     1  <0>         0.1400
     10 N10        -5.9861    0.3504   52.4364 N.am    1  <0>        -0.7500
     11 C11        -7.3246    0.3822   52.5901 C.2     1  <0>         0.7100
     12 O12        -7.9409    1.4010   52.3434 O.2     1  <0>        -0.5900
     13 N13        -7.9802   -0.7153   53.0171 N.am    1  <0>        -0.7400
     14 C14        -9.4350   -0.6801   53.1858 C.3     1  <0>         0.1700
     15 H15        -9.7330    0.2961   53.5682 H       1  <0>         0.0900
     16 C16       -10.1111   -0.9271   51.8357 C.3     1  <0>        -0.1700
     17 C17        -9.8600   -1.7669   54.1754 C.3     1  <0>        -0.0600
     18 C18        -9.5986   -1.2950   55.5825 C.2     1  <0>        -0.1700
     19 C19        -8.6601   -0.4159   55.9368 C.2     1  <0>        -0.1400
     20 C20        -8.6067   -0.1336   57.2909 C.2     1  <0>        -0.1300
     21 C21        -9.5019   -0.7836   58.0363 C.2     1  <0>        -0.2100
     22 S22       -10.4894   -1.8134   57.0078 S.3     1  <0>         0.0900
     23 N23        -2.4137    0.4301   47.6145 N.ar    1  <0>        -0.5400
     24 C24        -1.4734   -0.4768   47.4291 C.ar    1  <0>         0.1500
     25 H25         1.4493   -1.2024   47.4278 H       1  <0>         0.0700
     26 H26         1.0984   -1.8976   49.0283 H       1  <0>         0.0600
     27 H27         0.2261   -2.4850   47.5922 H       1  <0>         0.0700
     28 H28         0.5320    0.2711   50.0390 H       1  <0>         0.1300
     29 H29        -1.2586    1.9648   50.3390 H       1  <0>         0.1300
     30 H30        -3.7080    2.7131   48.0014 H       1  <0>         0.4000
     31 H31        -3.1091    2.6113   50.8203 H       1  <0>         0.0700
     32 H32        -4.5069    3.4226   50.0744 H       1  <0>         0.0700
     33 H33        -5.6973    1.3025   49.8757 H       1  <0>         0.0800
     34 H34        -4.2701    0.4043   50.4456 H       1  <0>         0.0800
     35 H35        -4.4010    1.7134   52.6051 H       1  <0>         0.0700
     36 H36        -5.9359    2.4075   52.0304 H       1  <0>         0.0700
     37 H37        -5.4946   -0.4627   52.6320 H       1  <0>         0.4000
     38 H38        -7.4887   -1.5284   53.2128 H       1  <0>         0.3900
     39 H39        -9.8132   -1.9034   51.4533 H       1  <0>         0.0600
     40 H40       -11.1936   -0.9010   51.9612 H       1  <0>         0.0700
     41 H41        -9.8084   -0.1529   51.1307 H       1  <0>         0.0700
     42 H42       -10.9232   -1.9739   54.0532 H       1  <0>         0.1000
     43 H43        -9.2887   -2.6754   53.9848 H       1  <0>         0.0800
     44 H44        -7.9924    0.0409   55.2214 H       1  <0>         0.1400
     45 H45        -7.8941    0.5600   57.7121 H       1  <0>         0.1400
     46 H46        -9.6067   -0.6892   59.1070 H       1  <0>         0.1600
     47 H47        -1.5509   -1.1629   46.5987 H       1  <0>         0.1500
@<TRIPOS>BOND
     1     1     2    1
     2     1    25    1
     3     1    26    1
     4     1    27    1
     5     2    24   ar
     6     2     3   ar
     7     3     4   ar
     8     3    28    1
     9     4     5   ar
    10     4    29    1
    11     5     6    1
    12     5    23   ar
    13     6     7    1
    14     6    30    1
    15     7     8    1
    16     7    31    1
    17     7    32    1
    18     8     9    1
    19     8    33    1
    20     8    34    1
    21     9    10    1
    22     9    35    1
    23     9    36    1
    24    10    11   am
    25    10    37    1
    26    11    12    2
    27    11    13   am
    28    13    14    1
    29    13    38    1
    30    14    15    1
    31    14    16    1
    32    14    17    1
    33    16    39    1
    34    16    40    1
    35    16    41    1
    36    17    18    1
    37    17    42    1
    38    17    43    1
    39    18    22    1
    40    18    19    2
    41    19    20    1
    42    19    44    1
    43    20    21    2
    44    20    45    1
    45    21    22    1
    46    21    46    1
    47    23    24   ar
    48    24    47    1
@<TRIPOS>SUBSTRUCTURE
     1 <0>         1 TEMP              0 ****  ****    0 ROOT


##########                                Name:    ZINC001090961577
##########                DOCK_Rotatable_Bonds:                   9
##########                         Heavy_Atoms:                  24
##########                    Molecular_Weight:             352.458
##########                DOCK_Rotatable_Bonds:                   9
##########                       Formal_Charge:                0.02
##########                     HBond_Acceptors:                   8
##########                        HBond_Donors:                   1
##########                         Heavy_Atoms:                  24
##########                          Grid_Score:          -31.972437
##########                     Grid_vdw_energy:          -31.834904
##########                      Grid_es_energy:           -0.137534
##########           Internal_energy_repulsive:            9.936069

@<TRIPOS>MOLECULE
ZINC001090961577
 48 49 1 0 0
SMALL
USER_CHARGES


@<TRIPOS>ATOM
      1 C1         -9.0454    0.1633   62.5313 C.3     1  ZINC001090961577   -0.1400
      2 C2         -8.5625   -0.6133   61.3046 C.3     1  ZINC001090961577   -0.0900
      3 S3         -9.8605   -1.7599   60.7652 S.3     1  ZINC001090961577   -0.2700
      4 C4         -9.1335   -2.5378   59.2967 C.3     1  ZINC001090961577   -0.0700
      5 C5        -10.1828   -3.4163   58.6126 C.3     1  ZINC001090961577   -0.1200
      6 C6        -11.3193   -2.5547   58.1258 C.2     1  ZINC001090961577    0.5400
      7 O7        -12.2546   -2.3134   58.8593 O.2     1  ZINC001090961577   -0.5300
      8 N8        -11.2965   -2.0523   56.8754 N.am    1  ZINC001090961577   -0.6200
      9 C9        -12.3342   -1.2013   56.2748 C.3     1  ZINC001090961577    0.1100
     10 C10       -11.8676   -0.8489   54.8466 C.3     1  ZINC001090961577   -0.1100
     11 H11       -12.3120   -1.5265   54.1175 H       1  ZINC001090961577    0.0900
     12 C12       -12.2074    0.6043   54.5093 C.3     1  ZINC001090961577   -0.1400
     13 C13       -10.3316   -1.0543   54.9221 C.3     1  ZINC001090961577    0.1500
     14 H14        -9.8403   -0.1771   55.3430 H       1  ZINC001090961577    0.1200
     15 N15        -9.7800   -1.3801   53.6046 N.pl3   1  ZINC001090961577   -0.6700
     16 C16        -8.6686   -0.7103   53.1376 C.ar    1  ZINC001090961577    0.5900
     17 N17        -8.1378    0.2525   53.8801 N.ar    1  ZINC001090961577   -0.5700
     18 C18        -7.0745    0.9171   53.4692 C.ar    1  ZINC001090961577    0.2700
     19 C19        -6.5074    0.5922   52.2293 C.ar    1  ZINC001090961577   -0.3000
     20 C20        -5.3190    1.3079   51.7302 C.2     1  ZINC001090961577    0.5300
     21 O21        -4.8653    2.2439   52.3582 O.2     1  ZINC001090961577   -0.5100
     22 O22        -4.7361    0.9241   50.5777 O.3     1  ZINC001090961577   -0.3600
     23 C23        -3.7967    1.8517   49.9732 C.3     1  ZINC001090961577    0.0400
     24 C24        -7.0993   -0.4313   51.4765 C.ar    1  ZINC001090961577    0.2600
     25 N25        -8.1584   -1.0513   51.9612 N.ar    1  ZINC001090961577   -0.5700
     26 C26       -10.2239   -2.2599   55.8855 C.3     1  ZINC001090961577    0.0900
     27 H27        -8.2654    0.8523   62.8554 H       1  ZINC001090961577    0.0700
     28 H28        -9.9433    0.7255   62.2750 H       1  ZINC001090961577    0.0700
     29 H29        -9.2716   -0.5347   63.3374 H       1  ZINC001090961577    0.0700
     30 H30        -8.3363    0.0847   60.4986 H       1  ZINC001090961577    0.0800
     31 H31        -7.6646   -1.1756   61.5610 H       1  ZINC001090961577    0.0800
     32 H32        -8.7990   -1.7652   58.6043 H       1  ZINC001090961577    0.0900
     33 H33        -8.2834   -3.1519   59.5941 H       1  ZINC001090961577    0.0900
     34 H34        -9.7292   -3.9316   57.7660 H       1  ZINC001090961577    0.1000
     35 H35       -10.5620   -4.1501   59.3238 H       1  ZINC001090961577    0.1000
     36 H36       -13.2792   -1.7426   56.2331 H       1  ZINC001090961577    0.0800
     37 H37       -12.4519   -0.2903   56.8617 H       1  ZINC001090961577    0.0800
     38 H38       -11.7297    1.2662   55.2316 H       1  ZINC001090961577    0.0600
     39 H39       -11.8466    0.8387   53.5077 H       1  ZINC001090961577    0.0600
     40 H40       -13.2877    0.7433   54.5481 H       1  ZINC001090961577    0.0700
     41 H41       -10.1965   -2.0669   53.0607 H       1  ZINC001090961577    0.4200
     42 H42        -6.6480    1.6999   54.0789 H       1  ZINC001090961577    0.1800
     43 H43        -3.4014    1.4207   49.0533 H       1  ZINC001090961577    0.1100
     44 H44        -4.3061    2.7882   49.7461 H       1  ZINC001090961577    0.0700
     45 H45        -2.9775    2.0425   50.6664 H       1  ZINC001090961577    0.0700
     46 H46        -6.6921   -0.7111   50.5162 H       1  ZINC001090961577    0.1800
     47 H47        -9.2494   -2.2696   56.3735 H       1  ZINC001090961577    0.0900
     48 H48       -10.3883   -3.1926   55.3458 H       1  ZINC001090961577    0.0800
@<TRIPOS>BOND
     1     1     2    1
     2     1    27    1
     3     1    28    1
     4     1    29    1
     5     2     3    1
     6     2    30    1
     7     2    31    1
     8     3     4    1
     9     4     5    1
    10     4    32    1
    11     4    33    1
    12     5     6    1
    13     5    34    1
    14     5    35    1
    15     6     7    2
    16     6     8   am
    17     8    26    1
    18     8     9    1
    19     9    10    1
    20     9    36    1
    21     9    37    1
    22    10    11    1
    23    10    12    1
    24    10    13    1
    25    12    38    1
    26    12    39    1
    27    12    40    1
    28    13    14    1
    29    13    15    1
    30    13    26    1
    31    15    16    1
    32    15    41    1
    33    16    25   ar
    34    16    17   ar
    35    17    18   ar
    36    18    19   ar
    37    18    42    1
    38    19    20    1
    39    19    24   ar
    40    20    21    2
    41    20    22    1
    42    22    23    1
    43    23    43    1
    44    23    44    1
    45    23    45    1
    46    24    25   ar
    47    24    46    1
    48    26    47    1
    49    26    48    1
@<TRIPOS>SUBSTRUCTURE
     1 ZINC001090961577        1 TEMP              0 ****  ****    0 ROOT


##########                                Name:    ZINC000894043060
##########                DOCK_Rotatable_Bonds:                  11
##########                         Heavy_Atoms:                  26
##########                    Molecular_Weight:             396.812
##########                DOCK_Rotatable_Bonds:                  11
##########                       Formal_Charge:          -0.0199999
##########                     HBond_Acceptors:                   9
##########                        HBond_Donors:                   2
##########                         Heavy_Atoms:                  26
##########                          Grid_Score:          -31.951651
##########                     Grid_vdw_energy:          -31.957369
##########                      Grid_es_energy:            0.005718
##########           Internal_energy_repulsive:           14.160967

@<TRIPOS>MOLECULE
ZINC000894043060
 47 47 1 0 0
SMALL
USER_CHARGES


@<TRIPOS>ATOM
      1 C1          1.7548    0.1009   50.4600 C.3     1  ZINC000894043060   -0.1700
      2 C2          1.9282    1.5873   50.1416 C.3     1  ZINC000894043060    0.1000
      3 H3          2.1360    2.1341   51.0614 H       1  ZINC000894043060    0.1100
      4 N4          0.6990    2.1033   49.5341 N.am    1  ZINC000894043060   -0.7300
      5 C5         -0.3571    2.4155   50.3110 C.2     1  ZINC000894043060    0.5200
      6 O6         -0.2904    2.2680   51.5130 O.2     1  ZINC000894043060   -0.5200
      7 C7         -1.6209    2.9479   49.6861 C.3     1  ZINC000894043060   -0.1400
      8 C8         -2.5405    1.7807   49.3215 C.3     1  ZINC000894043060   -0.0200
      9 C9         -3.9993    2.2052   49.5016 C.3     1  ZINC000894043060   -0.1400
     10 C10        -4.5483    1.5928   50.7645 C.2     1  ZINC000894043060    0.5200
     11 O11        -4.0302    1.8395   51.8330 O.2     1  ZINC000894043060   -0.5200
     12 N12        -5.6150    0.7710   50.7064 N.am    1  ZINC000894043060   -0.7300
     13 C13        -6.1498    0.1771   51.9342 C.3     1  ZINC000894043060    0.1000
     14 H14        -5.3358   -0.2662   52.5078 H       1  ZINC000894043060    0.1200
     15 C15        -6.8313    1.2619   52.7707 C.3     1  ZINC000894043060   -0.1700
     16 C16        -7.1693   -0.9056   51.5749 C.3     1  ZINC000894043060    0.2600
     17 F17        -7.6858   -1.4674   52.7475 F       1  ZINC000894043060   -0.1900
     18 F18        -8.2100   -0.3381   50.8320 F       1  ZINC000894043060   -0.2000
     19 C19        -2.3058    1.3858   47.8862 C.ar    1  ZINC000894043060   -0.0600
     20 C20        -1.7032    0.1769   47.5920 C.ar    1  ZINC000894043060   -0.1200
     21 C21        -1.4877   -0.1859   46.2758 C.ar    1  ZINC000894043060   -0.1200
     22 C22        -1.8751    0.6611   45.2527 C.ar    1  ZINC000894043060   -0.0400
     23 Cl23       -1.6051    0.2059   43.5993 Cl      1  ZINC000894043060   -0.0800
     24 C24        -2.4780    1.8709   45.5479 C.ar    1  ZINC000894043060   -0.1100
     25 C25        -2.6982    2.2300   46.8642 C.ar    1  ZINC000894043060   -0.0400
     26 C26         3.0935    1.7676   49.1668 C.3     1  ZINC000894043060    0.2600
     27 F27         4.2616    1.2487   49.7354 F       1  ZINC000894043060   -0.2000
     28 F28         2.8139    1.0899   47.9753 F       1  ZINC000894043060   -0.1900
     29 H29         1.5469   -0.4459   49.5402 H       1  ZINC000894043060    0.0600
     30 H30         2.6693   -0.2829   50.9121 H       1  ZINC000894043060    0.0800
     31 H31         0.9246   -0.0275   51.1545 H       1  ZINC000894043060    0.0800
     32 H32         0.6452    2.2201   48.5726 H       1  ZINC000894043060    0.4000
     33 H33        -2.1285    3.6027   50.3943 H       1  ZINC000894043060    0.1000
     34 H34        -1.3724    3.5096   48.7857 H       1  ZINC000894043060    0.1000
     35 H35        -2.3259    0.9324   49.9714 H       1  ZINC000894043060    0.1000
     36 H36        -4.0558    3.2916   49.5703 H       1  ZINC000894043060    0.1000
     37 H37        -4.5850    1.8641   48.6480 H       1  ZINC000894043060    0.1000
     38 H38        -6.0286    0.5728   49.8517 H       1  ZINC000894043060    0.4000
     39 H39        -7.6452    1.7053   52.1970 H       1  ZINC000894043060    0.0700
     40 H40        -7.2292    0.8200   53.6842 H       1  ZINC000894043060    0.0800
     41 H41        -6.1049    2.0333   53.0266 H       1  ZINC000894043060    0.0700
     42 H42        -6.6824   -1.6816   50.9843 H       1  ZINC000894043060    0.1200
     43 H43        -1.4006   -0.4840   48.3906 H       1  ZINC000894043060    0.1200
     44 H44        -1.0166   -1.1302   46.0460 H       1  ZINC000894043060    0.1300
     45 H45        -2.7803    2.5326   44.7496 H       1  ZINC000894043060    0.1300
     46 H46        -3.1691    3.1742   47.0947 H       1  ZINC000894043060    0.1300
     47 H47         3.2315    2.8284   48.9577 H       1  ZINC000894043060    0.1100
@<TRIPOS>BOND
     1     1     2    1
     2     1    29    1
     3     1    30    1
     4     1    31    1
     5     2     3    1
     6     2     4    1
     7     2    26    1
     8     4     5   am
     9     4    32    1
    10     5     6    2
    11     5     7    1
    12     7     8    1
    13     7    33    1
    14     7    34    1
    15     8     9    1
    16     8    19    1
    17     8    35    1
    18     9    10    1
    19     9    36    1
    20     9    37    1
    21    10    11    2
    22    10    12   am
    23    12    13    1
    24    12    38    1
    25    13    14    1
    26    13    15    1
    27    13    16    1
    28    15    39    1
    29    15    40    1
    30    15    41    1
    31    16    17    1
    32    16    18    1
    33    16    42    1
    34    19    25   ar
    35    19    20   ar
    36    20    21   ar
    37    20    43    1
    38    21    22   ar
    39    21    44    1
    40    22    23    1
    41    22    24   ar
    42    24    25   ar
    43    24    45    1
    44    25    46    1
    45    26    27    1
    46    26    28    1
    47    26    47    1
@<TRIPOS>SUBSTRUCTURE
     1 ZINC000894043060        1 TEMP              0 ****  ****    0 ROOT


##########                                Name:    ZINC000945148121
##########                DOCK_Rotatable_Bonds:                   6
##########                         Heavy_Atoms:                  24
##########                    Molecular_Weight:             332.446
##########                DOCK_Rotatable_Bonds:                   6
##########                       Formal_Charge:           0.0100009
##########                     HBond_Acceptors:                   6
##########                        HBond_Donors:                   2
##########                         Heavy_Atoms:                  24
##########                          Grid_Score:          -31.885605
##########                     Grid_vdw_energy:          -30.030615
##########                      Grid_es_energy:           -1.854989
##########           Internal_energy_repulsive:           21.225210

@<TRIPOS>MOLECULE
ZINC000945148121
 52 54 1 0 0
SMALL
USER_CHARGES


@<TRIPOS>ATOM
      1 O1        -11.5799   -0.3216   52.8323 O.2     1  ZINC000945148121   -0.5100
      2 C2        -10.4994   -0.8558   52.6975 C.2     1  ZINC000945148121    0.5200
      3 C3         -9.7176   -0.6635   51.4235 C.3     1  ZINC000945148121   -0.0500
      4 C4         -8.2437   -0.6406   51.7372 C.2     1  ZINC000945148121    0.0100
      5 C5         -7.6821   -0.1684   52.8664 C.2     1  ZINC000945148121   -0.0500
      6 N6         -6.3302   -0.3393   52.7379 N.pl3   1  ZINC000945148121   -0.5700
      7 C7         -6.1124   -0.9107   51.5338 C.2     1  ZINC000945148121    0.1800
      8 N8         -7.2618   -1.0925   50.9430 N.2     1  ZINC000945148121   -0.4700
      9 N9         -9.9953   -1.6167   53.6891 N.am    1  ZINC000945148121   -0.7300
     10 C10       -10.7553   -1.8035   54.9275 C.3     1  ZINC000945148121    0.1500
     11 C11       -10.4496   -3.1855   55.5097 C.3     1  ZINC000945148121   -0.1400
     12 C12       -11.2721   -3.3910   56.7856 C.3     1  ZINC000945148121    0.1100
     13 N13       -11.0052   -2.2764   57.7050 N.am    1  ZINC000945148121   -0.6100
     14 C14       -10.6069   -2.5108   58.9711 C.2     1  ZINC000945148121    0.5200
     15 O15       -10.4644   -3.6504   59.3607 O.2     1  ZINC000945148121   -0.5400
     16 C16       -10.3388   -1.3569   59.9025 C.3     1  ZINC000945148121   -0.1000
     17 C17       -11.6434   -0.7686   60.3671 C.3     1  ZINC000945148121   -0.1200
     18 C18       -11.5613    0.7555   60.5770 C.3     1  ZINC000945148121   -0.1200
     19 C19       -10.2534    1.1946   61.2626 C.3     1  ZINC000945148121   -0.1200
     20 C20        -9.8568    0.2771   62.3874 C.3     1  ZINC000945148121   -0.1200
     21 C21        -8.8771   -0.7789   61.8359 C.3     1  ZINC000945148121   -0.1200
     22 C22        -9.5598   -1.8571   61.1363 C.3     1  ZINC000945148121   -0.1000
     23 C23       -11.1801   -0.9013   57.2178 C.3     1  ZINC000945148121    0.1100
     24 C24       -10.3586   -0.7238   55.9370 C.3     1  ZINC000945148121   -0.1400
     25 H25        -9.9305   -1.4847   50.7390 H       1  ZINC000945148121    0.1000
     26 H26       -10.0050    0.2800   50.9596 H       1  ZINC000945148121    0.1000
     27 H27        -8.1992    0.2629   53.7109 H       1  ZINC000945148121    0.1800
     28 H28        -5.6547   -0.0957   53.3900 H       1  ZINC000945148121    0.4200
     29 H29        -5.1473   -1.1768   51.1287 H       1  ZINC000945148121    0.2100
     30 H30        -9.1293   -2.0406   53.5827 H       1  ZINC000945148121    0.4000
     31 H31       -11.8215   -1.7273   54.7143 H       1  ZINC000945148121    0.0900
     32 H32       -10.7107   -3.9530   54.7811 H       1  ZINC000945148121    0.0800
     33 H33        -9.3879   -3.2539   55.7464 H       1  ZINC000945148121    0.0700
     34 H34       -12.3332   -3.4132   56.5368 H       1  ZINC000945148121    0.0700
     35 H35       -10.9857   -4.3307   57.2578 H       1  ZINC000945148121    0.1000
     36 H36        -9.7547   -0.5963   59.3844 H       1  ZINC000945148121    0.1000
     37 H37       -12.4111   -0.9812   59.6230 H       1  ZINC000945148121    0.0700
     38 H38       -11.9273   -1.2393   61.3083 H       1  ZINC000945148121    0.0700
     39 H39       -11.6325    1.2483   59.6073 H       1  ZINC000945148121    0.0600
     40 H40       -12.4038    1.0716   61.1921 H       1  ZINC000945148121    0.0700
     41 H41        -9.4544    1.2096   60.5213 H       1  ZINC000945148121    0.0600
     42 H42       -10.3834    2.2018   61.6584 H       1  ZINC000945148121    0.0600
     43 H43        -9.3698    0.8524   63.1748 H       1  ZINC000945148121    0.0600
     44 H44       -10.7424   -0.2177   62.7859 H       1  ZINC000945148121    0.0700
     45 H45        -8.1856   -0.2934   61.1473 H       1  ZINC000945148121    0.0600
     46 H46        -8.3089   -1.2003   62.6651 H       1  ZINC000945148121    0.0600
     47 H47       -10.2568   -2.3377   61.8227 H       1  ZINC000945148121    0.0700
     48 H48        -8.8218   -2.5917   60.8137 H       1  ZINC000945148121    0.0700
     49 H49       -12.2336   -0.7205   57.0042 H       1  ZINC000945148121    0.0700
     50 H50       -10.8328   -0.1984   57.9750 H       1  ZINC000945148121    0.1000
     51 H51        -9.2977   -0.8154   56.1696 H       1  ZINC000945148121    0.0700
     52 H52       -10.5548    0.2608   55.5124 H       1  ZINC000945148121    0.0800
@<TRIPOS>BOND
     1     1     2    2
     2     2     3    1
     3     2     9   am
     4     3     4    1
     5     3    25    1
     6     3    26    1
     7     4     8    1
     8     4     5    2
     9     5     6    1
    10     5    27    1
    11     6     7    1
    12     6    28    1
    13     7     8    2
    14     7    29    1
    15     9    10    1
    16     9    30    1
    17    10    24    1
    18    10    11    1
    19    10    31    1
    20    11    12    1
    21    11    32    1
    22    11    33    1
    23    12    13    1
    24    12    34    1
    25    12    35    1
    26    13    14   am
    27    13    23    1
    28    14    15    2
    29    14    16    1
    30    16    22    1
    31    16    17    1
    32    16    36    1
    33    17    18    1
    34    17    37    1
    35    17    38    1
    36    18    19    1
    37    18    39    1
    38    18    40    1
    39    19    20    1
    40    19    41    1
    41    19    42    1
    42    20    21    1
    43    20    43    1
    44    20    44    1
    45    21    22    1
    46    21    45    1
    47    21    46    1
    48    22    47    1
    49    22    48    1
    50    23    24    1
    51    23    49    1
    52    23    50    1
    53    24    51    1
    54    24    52    1
@<TRIPOS>SUBSTRUCTURE
     1 ZINC000945148121        1 TEMP              0 ****  ****    0 ROOT


##########                                Name:    ZINC000938043669
##########                DOCK_Rotatable_Bonds:                   7
##########                         Heavy_Atoms:                  27
##########                    Molecular_Weight:             372.439
##########                DOCK_Rotatable_Bonds:                   7
##########                       Formal_Charge:           0.0499999
##########                     HBond_Acceptors:                   6
##########                        HBond_Donors:                   1
##########                         Heavy_Atoms:                  27
##########                          Grid_Score:          -31.884460
##########                     Grid_vdw_energy:          -31.679823
##########                      Grid_es_energy:           -0.204638
##########           Internal_energy_repulsive:           21.242725

@<TRIPOS>MOLECULE
ZINC000938043669
 52 55 1 0 0
SMALL
USER_CHARGES


@<TRIPOS>ATOM
      1 O1         -8.2570   -0.1471   50.8297 O.2     1  ZINC000938043669   -0.5000
      2 C2         -8.0611   -0.3800   52.0037 C.2     1  ZINC000938043669    0.5300
      3 C3         -6.6989   -0.8295   52.4656 C.3     1  ZINC000938043669    0.0500
      4 O4         -5.6941   -0.2043   51.6648 O.3     1  ZINC000938043669   -0.2800
      5 C5         -5.5167    1.1335   51.8304 C.ar    1  ZINC000938043669    0.0900
      6 C6         -6.2370    1.8148   52.7990 C.ar    1  ZINC000938043669   -0.1800
      7 C7         -6.0548    3.1748   52.9661 C.ar    1  ZINC000938043669   -0.0900
      8 C8         -5.1551    3.8566   52.1685 C.ar    1  ZINC000938043669   -0.1300
      9 C9         -4.4347    3.1809   51.2006 C.ar    1  ZINC000938043669   -0.1100
     10 C10        -4.6087    1.8192   51.0327 C.ar    1  ZINC000938043669    0.0800
     11 F11        -3.9051    1.1587   50.0874 F       1  ZINC000938043669   -0.1300
     12 N12        -9.0601   -0.2314   52.8961 N.am    1  ZINC000938043669   -0.6200
     13 C13       -10.4307    0.1996   52.5843 C.3     1  ZINC000938043669    0.1000
     14 C14       -11.2241    0.1973   53.9079 C.3     1  ZINC000938043669   -0.1400
     15 C15       -10.4098   -0.7771   54.7995 C.3     1  ZINC000938043669    0.1300
     16 H16       -10.6764   -1.8131   54.5905 H       1  ZINC000938043669    0.1100
     17 N17       -10.5930   -0.4670   56.2195 N.am    1  ZINC000938043669   -0.7200
     18 C18       -10.5442   -1.4536   57.1364 C.2     1  ZINC000938043669    0.5200
     19 O19       -10.3471   -2.5978   56.7862 O.2     1  ZINC000938043669   -0.5200
     20 C20       -10.7343   -1.1348   58.5970 C.3     1  ZINC000938043669   -0.1000
     21 H21       -11.6505   -0.5588   58.7266 H       1  ZINC000938043669    0.1000
     22 C22        -9.5425   -0.3169   59.0997 C.3     1  ZINC000938043669   -0.1100
     23 C23        -8.8432   -1.0739   60.2360 C.3     1  ZINC000938043669   -0.0600
     24 H24        -7.9598   -0.5325   60.5747 H       1  ZINC000938043669    0.0800
     25 C25        -8.4645   -2.4521   59.7143 C.2     1  ZINC000938043669   -0.1800
     26 C26        -9.5010   -3.1635   59.2772 C.2     1  ZINC000938043669   -0.1300
     27 C27       -10.8341   -2.4404   59.3963 C.3     1  ZINC000938043669   -0.0400
     28 H28       -11.6477   -3.0672   59.0310 H       1  ZINC000938043669    0.0900
     29 C29       -11.0418   -2.0860   60.8751 C.3     1  ZINC000938043669   -0.1200
     30 C30        -9.8454   -1.2527   61.3848 C.3     1  ZINC000938043669   -0.1100
     31 C31        -8.9611   -0.4800   54.3459 C.3     1  ZINC000938043669    0.1000
     32 H32        -6.5582   -0.5489   53.5095 H       1  ZINC000938043669    0.1000
     33 H33        -6.6206   -1.9122   52.3668 H       1  ZINC000938043669    0.1000
     34 H34        -6.9405    1.2834   53.4228 H       1  ZINC000938043669    0.1400
     35 H35        -6.6164    3.7054   53.7207 H       1  ZINC000938043669    0.1300
     36 H36        -5.0148    4.9192   52.3013 H       1  ZINC000938043669    0.1400
     37 H37        -3.7327    3.7160   50.5783 H       1  ZINC000938043669    0.1500
     38 H38       -10.4164    1.2046   52.1624 H       1  ZINC000938043669    0.0800
     39 H39       -10.8859   -0.4947   51.8780 H       1  ZINC000938043669    0.0800
     40 H40       -11.2453    1.1949   54.3466 H       1  ZINC000938043669    0.0900
     41 H41       -12.2354   -0.1776   53.7506 H       1  ZINC000938043669    0.1000
     42 H42       -10.7493    0.4484   56.4998 H       1  ZINC000938043669    0.4000
     43 H43        -8.8395   -0.1594   58.2818 H       1  ZINC000938043669    0.0700
     44 H44        -9.8932    0.6473   59.4676 H       1  ZINC000938043669    0.0800
     45 H45        -7.4489   -2.8192   59.7001 H       1  ZINC000938043669    0.1200
     46 H46        -9.4045   -4.1610   58.8747 H       1  ZINC000938043669    0.1200
     47 H47       -11.9550   -1.5010   60.9836 H       1  ZINC000938043669    0.0700
     48 H48       -11.1260   -3.0022   61.4597 H       1  ZINC000938043669    0.0700
     49 H49        -9.3615   -1.7781   62.2082 H       1  ZINC000938043669    0.0700
     50 H50       -10.2003   -0.2825   61.7320 H       1  ZINC000938043669    0.0700
     51 H51        -8.3182   -1.3376   54.5442 H       1  ZINC000938043669    0.0900
     52 H52        -8.5793    0.4065   54.8523 H       1  ZINC000938043669    0.0700
@<TRIPOS>BOND
     1     1     2    2
     2     2     3    1
     3     2    12   am
     4     3     4    1
     5     3    32    1
     6     3    33    1
     7     4     5    1
     8     5    10   ar
     9     5     6   ar
    10     6     7   ar
    11     6    34    1
    12     7     8   ar
    13     7    35    1
    14     8     9   ar
    15     8    36    1
    16     9    10   ar
    17     9    37    1
    18    10    11    1
    19    12    31    1
    20    12    13    1
    21    13    14    1
    22    13    38    1
    23    13    39    1
    24    14    15    1
    25    14    40    1
    26    14    41    1
    27    15    16    1
    28    15    17    1
    29    15    31    1
    30    17    18   am
    31    17    42    1
    32    18    19    2
    33    18    20    1
    34    20    21    1
    35    20    27    1
    36    20    22    1
    37    22    23    1
    38    22    43    1
    39    22    44    1
    40    23    24    1
    41    23    30    1
    42    23    25    1
    43    25    26    2
    44    25    45    1
    45    26    27    1
    46    26    46    1
    47    27    28    1
    48    27    29    1
    49    29    30    1
    50    29    47    1
    51    29    48    1
    52    30    49    1
    53    30    50    1
    54    31    51    1
    55    31    52    1
@<TRIPOS>SUBSTRUCTURE
     1 ZINC000938043669        1 TEMP              0 ****  ****    0 ROOT


##########                                Name:    ZINC000555499135
##########                DOCK_Rotatable_Bonds:                   8
##########                         Heavy_Atoms:                  26
##########                    Molecular_Weight:             377.554
##########                DOCK_Rotatable_Bonds:                   8
##########                       Formal_Charge:           0.0399999
##########                     HBond_Acceptors:                   7
##########                        HBond_Donors:                   0
##########                         Heavy_Atoms:                  26
##########                          Grid_Score:          -31.877378
##########                     Grid_vdw_energy:          -31.411001
##########                      Grid_es_energy:           -0.466377
##########           Internal_energy_repulsive:           10.782274

@<TRIPOS>MOLECULE
ZINC000555499135
 57 59 1 0 0
SMALL
USER_CHARGES


@<TRIPOS>ATOM
      1 C1        -15.2565   -1.2008   62.4392 C.3     1  ZINC000555499135   -0.1500
      2 C2        -16.0940   -1.1929   61.1588 C.3     1  ZINC000555499135   -0.0500
      3 C3        -15.3543   -1.9272   60.0703 C.2     1  ZINC000555499135   -0.2100
      4 C4        -15.5595   -3.1938   59.6968 C.2     1  ZINC000555499135    0.0300
      5 N5        -14.7815   -3.6074   58.7168 N.2     1  ZINC000555499135   -0.4500
      6 C6        -13.9317   -2.7601   58.2427 C.2     1  ZINC000555499135    0.0400
      7 C7        -12.9610   -3.0452   57.1258 C.3     1  ZINC000555499135    0.1500
      8 N8        -11.6439   -2.4925   57.4689 N.3     1  ZINC000555499135   -0.4500
      9 C9        -10.9512   -3.3480   58.4416 C.3     1  ZINC000555499135    0.0100
     10 C10       -10.8720   -2.3065   56.3330 C.2     1  ZINC000555499135    0.3500
     11 N11       -10.3514   -3.2475   55.5812 N.2     1  ZINC000555499135   -0.3100
     12 N12        -9.6961   -2.7182   54.6104 N.2     1  ZINC000555499135   -0.2900
     13 C13        -9.7595   -1.4189   54.6845 C.2     1  ZINC000555499135    0.2100
     14 C14        -9.1233   -0.4379   53.7338 C.3     1  ZINC000555499135   -0.0300
     15 C15        -9.0986   -1.0353   52.3255 C.3     1  ZINC000555499135   -0.0900
     16 C16       -10.4954   -0.9437   51.7080 C.3     1  ZINC000555499135   -0.1500
     17 C17        -8.1059   -0.2578   51.4589 C.3     1  ZINC000555499135   -0.1500
     18 N18       -10.5151   -1.1104   55.7817 N.pl3   1  ZINC000555499135   -0.4600
     19 C19       -10.8622    0.2267   56.2691 C.3     1  ZINC000555499135    0.1100
     20 C20        -9.6096    0.9090   56.8224 C.3     1  ZINC000555499135    0.0700
     21 H21        -8.8231    0.8919   56.0680 H       1  ZINC000555499135    0.0700
     22 C22        -9.1335    0.1654   58.0731 C.3     1  ZINC000555499135   -0.1500
     23 C23        -7.9155    0.8891   58.6553 C.3     1  ZINC000555499135   -0.1200
     24 C24        -8.2933    2.3436   58.9522 C.3     1  ZINC000555499135   -0.1600
     25 C25        -8.8019    3.0030   57.6675 C.3     1  ZINC000555499135    0.0600
     26 O26        -9.9149    2.2631   57.1619 O.3     1  ZINC000555499135   -0.3700
     27 S27       -14.0716   -1.2649   59.0600 S.3     1  ZINC000555499135    0.1200
     28 H28       -15.0792   -2.2301   62.7510 H       1  ZINC000555499135    0.0600
     29 H29       -14.3023   -0.7082   62.2523 H       1  ZINC000555499135    0.0600
     30 H30       -15.7914   -0.6698   63.2265 H       1  ZINC000555499135    0.0700
     31 H31       -17.0481   -1.6855   61.3457 H       1  ZINC000555499135    0.0900
     32 H32       -16.2713   -0.1636   60.8470 H       1  ZINC000555499135    0.0800
     33 H33       -16.3018   -3.8266   60.1601 H       1  ZINC000555499135    0.1800
     34 H34       -12.8771   -4.1225   56.9833 H       1  ZINC000555499135    0.0800
     35 H35       -13.3200   -2.5839   56.2058 H       1  ZINC000555499135    0.1200
     36 H36       -10.7065   -4.3029   57.9764 H       1  ZINC000555499135    0.0500
     37 H37       -10.0342   -2.8576   58.7687 H       1  ZINC000555499135    0.0800
     38 H38       -11.5988   -3.5182   59.3018 H       1  ZINC000555499135    0.0900
     39 H39        -9.7002    0.4869   53.7261 H       1  ZINC000555499135    0.1000
     40 H40        -8.1039   -0.2275   54.0572 H       1  ZINC000555499135    0.1000
     41 H41        -8.7930   -2.0802   52.3795 H       1  ZINC000555499135    0.0800
     42 H42       -11.2097   -1.4639   52.3463 H       1  ZINC000555499135    0.0500
     43 H43       -10.7846    0.1033   51.6172 H       1  ZINC000555499135    0.0600
     44 H44       -10.4872   -1.4054   50.7206 H       1  ZINC000555499135    0.0600
     45 H45        -7.1107   -0.3231   51.8989 H       1  ZINC000555499135    0.0600
     46 H46        -8.0883   -0.6834   50.4556 H       1  ZINC000555499135    0.0600
     47 H47        -8.4115    0.7872   51.4050 H       1  ZINC000555499135    0.0600
     48 H48       -11.2660    0.8192   55.4480 H       1  ZINC000555499135    0.1100
     49 H49       -11.6092    0.1432   57.0585 H       1  ZINC000555499135    0.1200
     50 H50        -9.9341    0.1469   58.8126 H       1  ZINC000555499135    0.0800
     51 H51        -8.8581   -0.8552   57.8074 H       1  ZINC000555499135    0.0800
     52 H52        -7.6054    0.3974   59.5773 H       1  ZINC000555499135    0.0700
     53 H53        -7.0979    0.8646   57.9347 H       1  ZINC000555499135    0.0600
     54 H54        -9.0769    2.3690   59.7095 H       1  ZINC000555499135    0.0700
     55 H55        -7.4171    2.8808   59.3151 H       1  ZINC000555499135    0.0800
     56 H56        -9.1124    4.0255   57.8822 H       1  ZINC000555499135    0.1000
     57 H57        -8.0047    3.0135   56.9242 H       1  ZINC000555499135    0.0500
@<TRIPOS>BOND
     1     1     2    1
     2     1    28    1
     3     1    29    1
     4     1    30    1
     5     2     3    1
     6     2    31    1
     7     2    32    1
     8     3    27    1
     9     3     4    2
    10     4     5    1
    11     4    33    1
    12     5     6    2
    13     6     7    1
    14     6    27    1
    15     7     8    1
    16     7    34    1
    17     7    35    1
    18     8     9    1
    19     8    10    1
    20     9    36    1
    21     9    37    1
    22     9    38    1
    23    10    18    1
    24    10    11    2
    25    11    12    1
    26    12    13    2
    27    13    14    1
    28    13    18    1
    29    14    15    1
    30    14    39    1
    31    14    40    1
    32    15    16    1
    33    15    17    1
    34    15    41    1
    35    16    42    1
    36    16    43    1
    37    16    44    1
    38    17    45    1
    39    17    46    1
    40    17    47    1
    41    18    19    1
    42    19    20    1
    43    19    48    1
    44    19    49    1
    45    20    21    1
    46    20    26    1
    47    20    22    1
    48    22    23    1
    49    22    50    1
    50    22    51    1
    51    23    24    1
    52    23    52    1
    53    23    53    1
    54    24    25    1
    55    24    54    1
    56    24    55    1
    57    25    26    1
    58    25    56    1
    59    25    57    1
@<TRIPOS>SUBSTRUCTURE
     1 ZINC000555499135        1 TEMP              0 ****  ****    0 ROOT


##########                                Name:    ZINC000279331220
##########                DOCK_Rotatable_Bonds:                   9
##########                         Heavy_Atoms:                  24
##########                    Molecular_Weight:             328.411
##########                DOCK_Rotatable_Bonds:                   9
##########                       Formal_Charge:          -0.0100001
##########                     HBond_Acceptors:                   5
##########                        HBond_Donors:                   0
##########                         Heavy_Atoms:                  24
##########                          Grid_Score:          -31.874966
##########                     Grid_vdw_energy:          -32.781055
##########                      Grid_es_energy:            0.906090
##########           Internal_energy_repulsive:           16.437540

@<TRIPOS>MOLECULE
ZINC000279331220
 48 49 1 0 0
SMALL
USER_CHARGES


@<TRIPOS>ATOM
      1 C1          0.5102    3.1781   52.6731 C.3     1  ZINC000279331220   -0.1500
      2 C2         -0.9520    3.1920   53.1231 C.3     1  ZINC000279331220    0.0500
      3 O3         -1.7969    2.9097   52.0058 O.3     1  ZINC000279331220   -0.3000
      4 C4         -3.1175    2.7130   52.2645 C.ar    1  ZINC000279331220    0.1000
      5 C5         -3.6839    3.2322   53.4171 C.ar    1  ZINC000279331220   -0.1700
      6 C6         -5.0269    3.0318   53.6784 C.ar    1  ZINC000279331220   -0.1200
      7 C7         -5.8069    2.3135   52.7918 C.ar    1  ZINC000279331220   -0.1200
      8 C8         -5.2476    1.7922   51.6395 C.ar    1  ZINC000279331220   -0.1700
      9 C9         -3.9043    1.9947   51.3687 C.ar    1  ZINC000279331220    0.1000
     10 O10        -3.3528    1.4826   50.2360 O.3     1  ZINC000279331220   -0.3000
     11 C11        -2.9001    2.4175   49.2548 C.3     1  ZINC000279331220    0.0600
     12 C12        -3.1100    1.8319   47.8570 C.3     1  ZINC000279331220   -0.1100
     13 C13        -1.9629    2.2683   46.9436 C.3     1  ZINC000279331220   -0.1300
     14 C14        -2.2132    1.7627   45.5462 C.2     1  ZINC000279331220    0.5200
     15 O15        -2.9309    2.3879   44.7946 O.2     1  ZINC000279331220   -0.5200
     16 N16        -1.6396    0.6158   45.1316 N.am    1  ZINC000279331220   -0.5700
     17 C17        -1.8817    0.1253   43.7725 C.3     1  ZINC000279331220    0.0800
     18 C18        -0.8160   -0.1039   45.9959 C.ar    1  ZINC000279331220    0.3400
     19 N19        -1.3546   -0.9250   46.8832 N.ar    1  ZINC000279331220   -0.4800
     20 C20        -0.6115   -1.6244   47.7194 C.ar    1  ZINC000279331220    0.1100
     21 C21         0.7653   -1.5231   47.6976 C.ar    1  ZINC000279331220   -0.1600
     22 C22         1.3699   -0.6726   46.7817 C.ar    1  ZINC000279331220   -0.0700
     23 C23         0.5642    0.0434   45.9141 C.ar    1  ZINC000279331220   -0.1200
     24 C24         1.1738    0.9787   44.9020 C.3     1  ZINC000279331220   -0.1100
     25 H25         1.1547    3.3933   53.5253 H       1  ZINC000279331220    0.0800
     26 H26         0.7569    2.1958   52.2699 H       1  ZINC000279331220    0.0700
     27 H27         0.6607    3.9350   51.9034 H       1  ZINC000279331220    0.0700
     28 H28        -1.1025    2.4350   53.8928 H       1  ZINC000279331220    0.0600
     29 H29        -1.1988    4.1742   53.5264 H       1  ZINC000279331220    0.0600
     30 H30        -3.0764    3.7932   54.1119 H       1  ZINC000279331220    0.1300
     31 H31        -5.4673    3.4370   54.5774 H       1  ZINC000279331220    0.1300
     32 H32        -6.8554    2.1589   52.9997 H       1  ZINC000279331220    0.1300
     33 H33        -5.8592    1.2308   50.9487 H       1  ZINC000279331220    0.1300
     34 H34        -3.4649    3.3450   49.3488 H       1  ZINC000279331220    0.0600
     35 H35        -1.8401    2.6205   49.4082 H       1  ZINC000279331220    0.0600
     36 H36        -3.1318    0.7439   47.9184 H       1  ZINC000279331220    0.0800
     37 H37        -4.0552    2.1919   47.4505 H       1  ZINC000279331220    0.0800
     38 H38        -1.9024    3.3566   46.9309 H       1  ZINC000279331220    0.1000
     39 H39        -1.0249    1.8567   47.3163 H       1  ZINC000279331220    0.1000
     40 H40        -1.1857    0.6045   43.0840 H       1  ZINC000279331220    0.0700
     41 H41        -1.7351   -0.9544   43.7443 H       1  ZINC000279331220    0.0800
     42 H42        -2.9043    0.3610   43.4779 H       1  ZINC000279331220    0.0800
     43 H43        -1.0862   -2.2843   48.4303 H       1  ZINC000279331220    0.1600
     44 H44         1.3657   -2.0992   48.3860 H       1  ZINC000279331220    0.1400
     45 H45         2.4448   -0.5755   46.7443 H       1  ZINC000279331220    0.1400
     46 H46         1.2872    0.4601   43.9499 H       1  ZINC000279331220    0.0800
     47 H47         0.5242    1.8439   44.7693 H       1  ZINC000279331220    0.0700
     48 H48         2.1510    1.3087   45.2545 H       1  ZINC000279331220    0.0700
@<TRIPOS>BOND
     1     1     2    1
     2     1    25    1
     3     1    26    1
     4     1    27    1
     5     2     3    1
     6     2    28    1
     7     2    29    1
     8     3     4    1
     9     4     9   ar
    10     4     5   ar
    11     5     6   ar
    12     5    30    1
    13     6     7   ar
    14     6    31    1
    15     7     8   ar
    16     7    32    1
    17     8     9   ar
    18     8    33    1
    19     9    10    1
    20    10    11    1
    21    11    12    1
    22    11    34    1
    23    11    35    1
    24    12    13    1
    25    12    36    1
    26    12    37    1
    27    13    14    1
    28    13    38    1
    29    13    39    1
    30    14    15    2
    31    14    16   am
    32    16    17    1
    33    16    18    1
    34    17    40    1
    35    17    41    1
    36    17    42    1
    37    18    23   ar
    38    18    19   ar
    39    19    20   ar
    40    20    21   ar
    41    20    43    1
    42    21    22   ar
    43    21    44    1
    44    22    23   ar
    45    22    45    1
    46    23    24    1
    47    24    46    1
    48    24    47    1
    49    24    48    1
@<TRIPOS>SUBSTRUCTURE
     1 ZINC000279331220        1 TEMP              0 ****  ****    0 ROOT


##########                                Name:    ZINC001342153661
##########                DOCK_Rotatable_Bonds:                   8
##########                         Heavy_Atoms:                  29
##########                    Molecular_Weight:             395.548
##########                DOCK_Rotatable_Bonds:                   8
##########                       Formal_Charge:          -0.0400005
##########                     HBond_Acceptors:                   6
##########                        HBond_Donors:                   1
##########                         Heavy_Atoms:                  29
##########                          Grid_Score:          -31.861385
##########                     Grid_vdw_energy:          -31.594900
##########                      Grid_es_energy:           -0.266485
##########           Internal_energy_repulsive:           15.737449

@<TRIPOS>MOLECULE
ZINC001342153661
 62 65 1 0 0
SMALL
USER_CHARGES


@<TRIPOS>ATOM
      1 C1         -7.3436    4.0548   57.2011 C.2     1  ZINC001342153661   -0.1400
      2 C2         -8.1758    3.0548   57.3553 C.2     1  ZINC001342153661   -0.1600
      3 C3         -9.6589    3.2798   57.2112 C.3     1  ZINC001342153661   -0.1200
      4 C4         -7.6500    1.6797   57.6771 C.3     1  ZINC001342153661    0.1500
      5 N5         -8.2866    0.6954   56.7985 N.pl3   1  ZINC001342153661   -0.4700
      6 C6         -8.1557    0.5937   55.4411 C.2     1  ZINC001342153661    0.1800
      7 C7         -7.3205    1.4819   54.5554 C.3     1  ZINC001342153661   -0.0600
      8 C8         -7.1559    0.8245   53.1836 C.3     1  ZINC001342153661    0.1600
      9 H9         -6.9017   -0.2275   53.3131 H       1  ZINC001342153661    0.1000
     10 O10        -8.3797    0.9324   52.4538 O.3     1  ZINC001342153661   -0.5400
     11 C11        -6.0547    1.5176   52.4232 C.ar    1  ZINC001342153661   -0.1700
     12 C12        -5.7605    2.8491   52.6721 C.ar    1  ZINC001342153661   -0.0600
     13 C13        -4.7387    3.4456   51.9487 C.ar    1  ZINC001342153661   -0.1700
     14 C14        -4.0527    2.6981   51.0106 C.ar    1  ZINC001342153661    0.1000
     15 N15        -4.3599    1.4329   50.8003 N.ar    1  ZINC001342153661   -0.4800
     16 C16        -5.3216    0.8320   51.4730 C.ar    1  ZINC001342153661    0.1100
     17 N17        -8.8863   -0.4140   55.0558 N.2     1  ZINC001342153661   -0.2700
     18 N18        -9.4654   -0.9517   56.0693 N.2     1  ZINC001342153661   -0.3200
     19 C19        -9.1286   -0.3137   57.1654 C.2     1  ZINC001342153661    0.3600
     20 N20        -9.5543   -0.6045   58.4518 N.3     1  ZINC001342153661   -0.4500
     21 C21        -8.5991   -1.4856   59.1357 C.3     1  ZINC001342153661    0.0500
     22 C22        -9.0248   -1.6672   60.5944 C.3     1  ZINC001342153661   -0.1200
     23 C23       -10.4300   -2.2739   60.6393 C.3     1  ZINC001342153661   -0.1200
     24 C24       -11.3959   -1.3612   59.8787 C.3     1  ZINC001342153661   -0.0800
     25 H25       -11.4388   -0.3882   60.3681 H       1  ZINC001342153661    0.0800
     26 C26       -12.7909   -1.9896   59.8682 C.3     1  ZINC001342153661   -0.0800
     27 C27       -13.3714   -2.0448   61.3031 C.3     1  ZINC001342153661   -0.1200
     28 C28       -14.8987   -2.1043   61.0520 C.3     1  ZINC001342153661   -0.1300
     29 C29       -15.1206   -1.1673   59.8467 C.3     1  ZINC001342153661   -0.1300
     30 C30       -13.7804   -1.0944   59.0940 C.3     1  ZINC001342153661   -0.1200
     31 C31       -10.9015   -1.1886   58.4407 C.3     1  ZINC001342153661    0.0800
     32 H32        -7.7204    5.0403   56.9706 H       1  ZINC001342153661    0.1000
     33 H33        -6.2810    3.8945   57.3088 H       1  ZINC001342153661    0.1100
     34 H34        -9.9370    3.2070   56.1599 H       1  ZINC001342153661    0.0700
     35 H35       -10.1982    2.5245   57.7829 H       1  ZINC001342153661    0.0600
     36 H36        -9.9144    4.2706   57.5868 H       1  ZINC001342153661    0.0700
     37 H37        -6.5708    1.6586   57.5247 H       1  ZINC001342153661    0.1000
     38 H38        -7.8749    1.4386   58.7159 H       1  ZINC001342153661    0.1000
     39 H39        -7.8143    2.4466   54.4390 H       1  ZINC001342153661    0.1100
     40 H40        -6.3398    1.6280   55.0083 H       1  ZINC001342153661    0.1000
     41 H41        -8.3623    0.4977   51.5902 H       1  ZINC001342153661    0.3800
     42 H42        -6.3142    3.4089   53.4114 H       1  ZINC001342153661    0.1300
     43 H43        -4.4827    4.4814   52.1162 H       1  ZINC001342153661    0.1400
     44 H44        -3.2558    3.1554   50.4430 H       1  ZINC001342153661    0.1600
     45 H45        -5.5447   -0.2057   51.2731 H       1  ZINC001342153661    0.1500
     46 H46        -8.5806   -2.4560   58.6394 H       1  ZINC001342153661    0.0500
     47 H47        -7.6048   -1.0405   59.1002 H       1  ZINC001342153661    0.0700
     48 H48        -8.3244   -2.3337   61.0976 H       1  ZINC001342153661    0.0800
     49 H49        -9.0303   -0.6989   61.0951 H       1  ZINC001342153661    0.0700
     50 H50       -10.4164   -3.2591   60.1731 H       1  ZINC001342153661    0.0600
     51 H51       -10.7545   -2.3647   61.6759 H       1  ZINC001342153661    0.0700
     52 H52       -12.7557   -2.9870   59.4301 H       1  ZINC001342153661    0.0800
     53 H53       -13.0305   -2.9399   61.8235 H       1  ZINC001342153661    0.0700
     54 H54       -13.1065   -1.1472   61.8619 H       1  ZINC001342153661    0.0700
     55 H55       -15.2056   -3.1210   60.8064 H       1  ZINC001342153661    0.0600
     56 H56       -15.4430   -1.7404   61.9233 H       1  ZINC001342153661    0.0600
     57 H57       -15.8933   -1.5744   59.1946 H       1  ZINC001342153661    0.0600
     58 H58       -15.4086   -0.1749   60.1934 H       1  ZINC001342153661    0.0600
     59 H59       -13.4181   -0.0665   59.0754 H       1  ZINC001342153661    0.0600
     60 H60       -13.9029   -1.4660   58.0767 H       1  ZINC001342153661    0.0600
     61 H61       -11.5795   -0.5278   57.9005 H       1  ZINC001342153661    0.0900
     62 H62       -10.8721   -2.1602   57.9477 H       1  ZINC001342153661    0.0500
@<TRIPOS>BOND
     1     1     2    2
     2     1    32    1
     3     1    33    1
     4     2     3    1
     5     2     4    1
     6     3    34    1
     7     3    35    1
     8     3    36    1
     9     4     5    1
    10     4    37    1
    11     4    38    1
    12     5    19    1
    13     5     6    1
    14     6     7    1
    15     6    17    2
    16     7     8    1
    17     7    39    1
    18     7    40    1
    19     8     9    1
    20     8    10    1
    21     8    11    1
    22    10    41    1
    23    11    16   ar
    24    11    12   ar
    25    12    13   ar
    26    12    42    1
    27    13    14   ar
    28    13    43    1
    29    14    15   ar
    30    14    44    1
    31    15    16   ar
    32    16    45    1
    33    17    18    1
    34    18    19    2
    35    19    20    1
    36    20    31    1
    37    20    21    1
    38    21    22    1
    39    21    46    1
    40    21    47    1
    41    22    23    1
    42    22    48    1
    43    22    49    1
    44    23    24    1
    45    23    50    1
    46    23    51    1
    47    24    25    1
    48    24    26    1
    49    24    31    1
    50    26    30    1
    51    26    27    1
    52    26    52    1
    53    27    28    1
    54    27    53    1
    55    27    54    1
    56    28    29    1
    57    28    55    1
    58    28    56    1
    59    29    30    1
    60    29    57    1
    61    29    58    1
    62    30    59    1
    63    30    60    1
    64    31    61    1
    65    31    62    1
@<TRIPOS>SUBSTRUCTURE
     1 ZINC001342153661        1 TEMP              0 ****  ****    0 ROOT


##########                                Name:    ZINC001341052241
##########                DOCK_Rotatable_Bonds:                   7
##########                         Heavy_Atoms:                  24
##########                    Molecular_Weight:             336.478
##########                DOCK_Rotatable_Bonds:                   7
##########                       Formal_Charge:         5.96046e-08
##########                     HBond_Acceptors:                   6
##########                        HBond_Donors:                   0
##########                         Heavy_Atoms:                  24
##########                          Grid_Score:          -31.798401
##########                     Grid_vdw_energy:          -31.030870
##########                      Grid_es_energy:           -0.767530
##########           Internal_energy_repulsive:           22.943981

@<TRIPOS>MOLECULE
ZINC001341052241
 56 58 1 0 0
SMALL
USER_CHARGES


@<TRIPOS>ATOM
      1 C1         -4.9026    1.2777   51.1178 C.3     1  ZINC001341052241   -0.1700
      2 C2         -4.1112    2.5060   50.6640 C.3     1  ZINC001341052241    0.1100
      3 N3         -2.6974    2.3292   51.0048 N.pl3   1  ZINC001341052241   -0.4500
      4 C4         -2.0590    2.7666   52.1321 C.2     1  ZINC001341052241    0.1800
      5 C5         -2.6825    3.5290   53.2728 C.3     1  ZINC001341052241    0.1500
      6 O6         -1.7348    4.4613   53.7969 O.3     1  ZINC001341052241   -0.3700
      7 C7         -0.7195    3.8649   54.6066 C.3     1  ZINC001341052241    0.0900
      8 C8         -1.3674    3.1617   55.8009 C.3     1  ZINC001341052241   -0.1400
      9 C9         -0.2803    2.5231   56.6678 C.3     1  ZINC001341052241   -0.1200
     10 C10         0.6738    3.6082   57.1709 C.3     1  ZINC001341052241   -0.1200
     11 C11         1.3215    4.3115   55.9766 C.3     1  ZINC001341052241   -0.1200
     12 C12         0.2345    4.9501   55.1097 C.3     1  ZINC001341052241   -0.1200
     13 N13        -0.8119    2.4013   52.0377 N.2     1  ZINC001341052241   -0.2600
     14 N14        -0.6216    1.7628   50.9386 N.2     1  ZINC001341052241   -0.3100
     15 C15        -1.7444    1.6943   50.2628 C.2     1  ZINC001341052241    0.3500
     16 N16        -1.9286    1.0868   49.0311 N.3     1  ZINC001341052241   -0.4600
     17 C17        -1.9678    2.0834   47.9533 C.3     1  ZINC001341052241    0.0700
     18 C18        -2.3165    1.3944   46.6320 C.3     1  ZINC001341052241   -0.1100
     19 C19        -1.2638    0.3255   46.3261 C.3     1  ZINC001341052241   -0.0900
     20 C20        -1.6400   -0.4085   45.0373 C.3     1  ZINC001341052241    0.0700
     21 O21        -0.9990    0.2212   43.9261 O.3     1  ZINC001341052241   -0.3900
     22 C22        -1.5734   -0.1093   42.6601 C.3     1  ZINC001341052241    0.0300
     23 C23        -1.2091   -0.6726   47.4860 C.3     1  ZINC001341052241   -0.1100
     24 C24        -0.8925    0.0763   48.7824 C.3     1  ZINC001341052241    0.0700
     25 H25        -4.5094    0.3893   50.6238 H       1  ZINC001341052241    0.0600
     26 H26        -4.8095    1.1641   52.1978 H       1  ZINC001341052241    0.0700
     27 H27        -5.9529    1.4048   50.8550 H       1  ZINC001341052241    0.0800
     28 H28        -4.4977    3.3930   51.1659 H       1  ZINC001341052241    0.0900
     29 H29        -4.2128    2.6256   49.5854 H       1  ZINC001341052241    0.1000
     30 H30        -3.5603    4.0663   52.9139 H       1  ZINC001341052241    0.0900
     31 H31        -2.9784    2.8320   54.0568 H       1  ZINC001341052241    0.0700
     32 H32        -0.1632    3.1380   54.0147 H       1  ZINC001341052241    0.0600
     33 H33        -1.9236    3.8886   56.3927 H       1  ZINC001341052241    0.0700
     34 H34        -2.0469    2.3885   55.4425 H       1  ZINC001341052241    0.0700
     35 H35         0.2760    1.7961   56.0760 H       1  ZINC001341052241    0.0600
     36 H36        -0.7419    2.0220   57.5187 H       1  ZINC001341052241    0.0700
     37 H37         1.4482    3.1533   57.7886 H       1  ZINC001341052241    0.0600
     38 H38         0.1175    4.3352   57.7627 H       1  ZINC001341052241    0.0600
     39 H39         1.8779    3.5846   55.3848 H       1  ZINC001341052241    0.0600
     40 H40         2.0012    5.0846   56.3351 H       1  ZINC001341052241    0.0700
     41 H41         0.6960    5.4512   54.2587 H       1  ZINC001341052241    0.0700
     42 H42        -0.3218    5.6771   55.7015 H       1  ZINC001341052241    0.0700
     43 H43        -0.9928    2.5630   47.8665 H       1  ZINC001341052241    0.0600
     44 H44        -2.7233    2.8353   48.1812 H       1  ZINC001341052241    0.0800
     45 H45        -2.3302    2.1319   45.8296 H       1  ZINC001341052241    0.0800
     46 H46        -3.2975    0.9262   46.7135 H       1  ZINC001341052241    0.0800
     47 H47        -0.2892    0.7982   46.2048 H       1  ZINC001341052241    0.0800
     48 H48        -2.7208   -0.3728   44.9011 H       1  ZINC001341052241    0.0500
     49 H49        -1.3161   -1.4472   45.1028 H       1  ZINC001341052241    0.0500
     50 H50        -1.5084   -1.1857   42.5014 H       1  ZINC001341052241    0.0400
     51 H51        -1.0309    0.4081   41.8688 H       1  ZINC001341052241    0.0900
     52 H52        -2.6191    0.1978   42.6443 H       1  ZINC001341052241    0.0400
     53 H53        -2.1727   -1.1733   47.5809 H       1  ZINC001341052241    0.0700
     54 H54        -0.4316   -1.4119   47.2935 H       1  ZINC001341052241    0.0800
     55 H55         0.0774    0.5653   48.6918 H       1  ZINC001341052241    0.0600
     56 H56        -0.8670   -0.6296   49.6126 H       1  ZINC001341052241    0.0800
@<TRIPOS>BOND
     1     1     2    1
     2     1    25    1
     3     1    26    1
     4     1    27    1
     5     2     3    1
     6     2    28    1
     7     2    29    1
     8     3    15    1
     9     3     4    1
    10     4     5    1
    11     4    13    2
    12     5     6    1
    13     5    30    1
    14     5    31    1
    15     6     7    1
    16     7    12    1
    17     7     8    1
    18     7    32    1
    19     8     9    1
    20     8    33    1
    21     8    34    1
    22     9    10    1
    23     9    35    1
    24     9    36    1
    25    10    11    1
    26    10    37    1
    27    10    38    1
    28    11    12    1
    29    11    39    1
    30    11    40    1
    31    12    41    1
    32    12    42    1
    33    13    14    1
    34    14    15    2
    35    15    16    1
    36    16    24    1
    37    16    17    1
    38    17    18    1
    39    17    43    1
    40    17    44    1
    41    18    19    1
    42    18    45    1
    43    18    46    1
    44    19    20    1
    45    19    23    1
    46    19    47    1
    47    20    21    1
    48    20    48    1
    49    20    49    1
    50    21    22    1
    51    22    50    1
    52    22    51    1
    53    22    52    1
    54    23    24    1
    55    23    53    1
    56    23    54    1
    57    24    55    1
    58    24    56    1
@<TRIPOS>SUBSTRUCTURE
     1 ZINC001341052241        1 TEMP              0 ****  ****    0 ROOT


##########                                Name:    ZINC000089894387
##########                DOCK_Rotatable_Bonds:                   8
##########                         Heavy_Atoms:                  22
##########                    Molecular_Weight:             326.823
##########                DOCK_Rotatable_Bonds:                   8
##########                       Formal_Charge:          -0.0300003
##########                     HBond_Acceptors:                   6
##########                        HBond_Donors:                   2
##########                         Heavy_Atoms:                  22
##########                          Grid_Score:          -31.783638
##########                     Grid_vdw_energy:          -29.976919
##########                      Grid_es_energy:           -1.806719
##########           Internal_energy_repulsive:           33.749386

@<TRIPOS>MOLECULE
ZINC000089894387
 45 46 1 0 0
SMALL
USER_CHARGES


@<TRIPOS>ATOM
      1 C1          1.2281    2.8097   50.8657 C.3     1  ZINC000089894387   -0.1700
      2 C2          1.9354    1.5651   51.4059 C.3     1  ZINC000089894387    0.1700
      3 H3          1.9640    1.6073   52.4947 H       1  ZINC000089894387    0.0900
      4 N4          1.2068    0.3669   50.9824 N.am    1  ZINC000089894387   -0.7400
      5 C5          1.1450    0.0425   49.6757 C.2     1  ZINC000089894387    0.7100
      6 O6          1.6927    0.7450   48.8482 O.2     1  ZINC000089894387   -0.5900
      7 N7          0.4759   -1.0608   49.2862 N.am    1  ZINC000089894387   -0.7500
      8 C8          0.4102   -1.4144   47.8660 C.3     1  ZINC000089894387    0.1400
      9 C9         -0.8532   -2.2362   47.6030 C.3     1  ZINC000089894387    0.0500
     10 O10        -1.9912   -1.3719   47.5978 O.3     1  ZINC000089894387   -0.3100
     11 C11        -2.0008   -0.3701   46.6796 C.ar    1  ZINC000089894387    0.1400
     12 C12        -2.2006    0.9416   47.0847 C.ar    1  ZINC000089894387   -0.2100
     13 C13        -2.2101    1.9588   46.1498 C.ar    1  ZINC000089894387   -0.0700
     14 C14        -2.0207    1.6710   44.8111 C.ar    1  ZINC000089894387   -0.1500
     15 C15        -1.8216    0.3633   44.4037 C.ar    1  ZINC000089894387    0.0000
     16 Cl16       -1.5841    0.0051   42.7218 Cl      1  ZINC000089894387   -0.0600
     17 C17        -1.8052   -0.6570   45.3365 C.ar    1  ZINC000089894387   -0.1500
     18 C18         3.3638    1.5130   50.8600 C.3     1  ZINC000089894387   -0.1000
     19 C19         4.1306    2.7599   51.3110 C.3     1  ZINC000089894387   -0.1600
     20 C20         5.5797    2.6612   50.8270 C.3     1  ZINC000089894387    0.0600
     21 O21         6.1714    1.4657   51.3396 O.3     1  ZINC000089894387   -0.3800
     22 C22         5.5248    0.2650   50.9123 C.3     1  ZINC000089894387    0.0600
     23 C23         4.0735    0.2674   51.3998 C.3     1  ZINC000089894387   -0.1500
     24 H24         1.1997    2.7676   49.7768 H       1  ZINC000089894387    0.0600
     25 H25         0.2106    2.8468   51.2546 H       1  ZINC000089894387    0.0600
     26 H26         1.7703    3.7013   51.1808 H       1  ZINC000089894387    0.0700
     27 H27         0.7688   -0.1930   51.6424 H       1  ZINC000089894387    0.3900
     28 H28         0.0379   -1.6207   49.9462 H       1  ZINC000089894387    0.4000
     29 H29         0.3834   -0.5049   47.2660 H       1  ZINC000089894387    0.0800
     30 H30         1.2881   -2.0017   47.5968 H       1  ZINC000089894387    0.0900
     31 H31        -0.7693   -2.7323   46.6360 H       1  ZINC000089894387    0.0900
     32 H32        -0.9694   -2.9850   48.3866 H       1  ZINC000089894387    0.0700
     33 H33        -2.3490    1.1674   48.1303 H       1  ZINC000089894387    0.1300
     34 H34        -2.3660    2.9799   46.4651 H       1  ZINC000089894387    0.1400
     35 H35        -2.0286    2.4676   44.0819 H       1  ZINC000089894387    0.1400
     36 H36        -1.6494   -1.6773   45.0187 H       1  ZINC000089894387    0.1400
     37 H37         3.3367    1.4740   49.7710 H       1  ZINC000089894387    0.0800
     38 H38         3.6640    3.6483   50.8854 H       1  ZINC000089894387    0.0700
     39 H39         4.1136    2.8242   52.3991 H       1  ZINC000089894387    0.0800
     40 H40         5.5981    2.6377   49.7375 H       1  ZINC000089894387    0.0500
     41 H41         6.1410    3.5256   51.1817 H       1  ZINC000089894387    0.0900
     42 H42         5.5425    0.2103   49.8238 H       1  ZINC000089894387    0.0500
     43 H43         6.0465   -0.5967   51.3284 H       1  ZINC000089894387    0.1000
     44 H44         4.0553    0.2814   52.4896 H       1  ZINC000089894387    0.0800
     45 H45         3.5661   -0.6267   51.0376 H       1  ZINC000089894387    0.0800
@<TRIPOS>BOND
     1     1     2    1
     2     1    24    1
     3     1    25    1
     4     1    26    1
     5     2     3    1
     6     2     4    1
     7     2    18    1
     8     4     5   am
     9     4    27    1
    10     5     6    2
    11     5     7   am
    12     7     8    1
    13     7    28    1
    14     8     9    1
    15     8    29    1
    16     8    30    1
    17     9    10    1
    18     9    31    1
    19     9    32    1
    20    10    11    1
    21    11    17   ar
    22    11    12   ar
    23    12    13   ar
    24    12    33    1
    25    13    14   ar
    26    13    34    1
    27    14    15   ar
    28    14    35    1
    29    15    16    1
    30    15    17   ar
    31    17    36    1
    32    18    23    1
    33    18    19    1
    34    18    37    1
    35    19    20    1
    36    19    38    1
    37    19    39    1
    38    20    21    1
    39    20    40    1
    40    20    41    1
    41    21    22    1
    42    22    23    1
    43    22    42    1
    44    22    43    1
    45    23    44    1
    46    23    45    1
@<TRIPOS>SUBSTRUCTURE
     1 ZINC000089894387        1 TEMP              0 ****  ****    0 ROOT


##########                                Name:    ZINC000484424341
##########                DOCK_Rotatable_Bonds:                   7
##########                         Heavy_Atoms:                  26
##########                    Molecular_Weight:             359.425
##########                DOCK_Rotatable_Bonds:                   7
##########                       Formal_Charge:          -0.0100009
##########                     HBond_Acceptors:                   7
##########                        HBond_Donors:                   1
##########                         Heavy_Atoms:                  26
##########                          Grid_Score:          -31.781866
##########                     Grid_vdw_energy:          -30.855087
##########                      Grid_es_energy:           -0.926779
##########           Internal_energy_repulsive:           21.128633

@<TRIPOS>MOLECULE
ZINC000484424341
 51 53 1 0 0
SMALL
USER_CHARGES


@<TRIPOS>ATOM
      1 C1         -6.0877   -1.1598   51.7266 C.3     1  ZINC000484424341    0.0300
      2 O2         -6.8280   -0.7179   52.8661 O.3     1  ZINC000484424341   -0.3800
      3 C3         -7.9304    0.1342   52.5484 C.3     1  ZINC000484424341    0.1300
      4 H4         -8.1374    0.0771   51.4798 H       1  ZINC000484424341    0.0700
      5 C5         -7.5852    1.5764   52.9248 C.3     1  ZINC000484424341   -0.1700
      6 C6         -9.1465   -0.3091   53.3201 C.ar    1  ZINC000484424341   -0.0700
      7 C7        -10.3473   -0.5059   52.6633 C.ar    1  ZINC000484424341   -0.1000
      8 C8        -11.4659   -0.9128   53.3676 C.ar    1  ZINC000484424341   -0.1000
      9 C9        -11.3871   -1.1237   54.7298 C.ar    1  ZINC000484424341   -0.1100
     10 C10       -10.1820   -0.9269   55.3931 C.ar    1  ZINC000484424341    0.1400
     11 N11       -10.0985   -1.1399   56.7714 N.am    1  ZINC000484424341   -0.6400
     12 C12       -10.0769   -2.3962   57.2591 C.2     1  ZINC000484424341    0.5100
     13 O13       -10.1297   -3.3425   56.5009 O.2     1  ZINC000484424341   -0.4900
     14 C14        -9.9876   -2.6239   58.7325 C.2     1  ZINC000484424341    0.5200
     15 O15       -10.1431   -3.7393   59.1847 O.2     1  ZINC000484424341   -0.5200
     16 N16        -9.7342   -1.5905   59.5599 N.am    1  ZINC000484424341   -0.5800
     17 C17        -9.5259   -0.1946   59.1484 C.3     1  ZINC000484424341    0.1100
     18 C18        -9.2975    0.6321   60.4314 C.3     1  ZINC000484424341   -0.1500
     19 C19        -9.9513   -0.2456   61.5312 C.3     1  ZINC000484424341    0.1500
     20 H20       -11.0288   -0.0847   61.5704 H       1  ZINC000484424341    0.1100
     21 N21        -9.3379    0.0061   62.8376 N.am    1  ZINC000484424341   -0.6100
     22 C22        -8.2178   -0.7653   63.3891 C.3     1  ZINC000484424341    0.1000
     23 C23        -7.6425    0.1019   64.5307 C.3     1  ZINC000484424341   -0.1300
     24 C24        -8.8711    0.9513   64.9312 C.3     1  ZINC000484424341   -0.1600
     25 C25        -9.7252    0.9770   63.6828 C.2     1  ZINC000484424341    0.5200
     26 O26       -10.6321    1.7556   63.4776 O.2     1  ZINC000484424341   -0.5200
     27 C27        -9.6265   -1.6718   61.0279 C.3     1  ZINC000484424341    0.0900
     28 C28        -9.0591   -0.5237   54.6817 C.ar    1  ZINC000484424341   -0.1300
     29 H29        -5.6846   -0.2960   51.1979 H       1  ZINC000484424341    0.0400
     30 H30        -5.2687   -1.8014   52.0519 H       1  ZINC000484424341    0.0900
     31 H31        -6.7451   -1.7191   51.0609 H       1  ZINC000484424341    0.0400
     32 H32        -7.3782    1.6334   53.9934 H       1  ZINC000484424341    0.0700
     33 H33        -6.7056    1.8970   52.3667 H       1  ZINC000484424341    0.0600
     34 H34        -8.4261    2.2263   52.6824 H       1  ZINC000484424341    0.0700
     35 H35       -10.4119   -0.3413   51.5979 H       1  ZINC000484424341    0.1300
     36 H36       -12.4024   -1.0652   52.8515 H       1  ZINC000484424341    0.1300
     37 H37       -12.2610   -1.4411   55.2793 H       1  ZINC000484424341    0.1300
     38 H38       -10.0561   -0.3836   57.3774 H       1  ZINC000484424341    0.4200
     39 H39        -8.6510   -0.1253   58.5021 H       1  ZINC000484424341    0.0800
     40 H40       -10.4076    0.1725   58.6230 H       1  ZINC000484424341    0.0800
     41 H41        -8.2322    0.7603   60.6231 H       1  ZINC000484424341    0.0900
     42 H42        -9.7971    1.5984   60.3616 H       1  ZINC000484424341    0.0900
     43 H43        -8.5730   -1.7182   63.7815 H       1  ZINC000484424341    0.0800
     44 H44        -7.4604   -0.9309   62.6229 H       1  ZINC000484424341    0.0800
     45 H45        -7.3096   -0.5189   65.3624 H       1  ZINC000484424341    0.0900
     46 H46        -6.8319    0.7347   64.1693 H       1  ZINC000484424341    0.0800
     47 H47        -9.4075    0.4812   65.7554 H       1  ZINC000484424341    0.1100
     48 H48        -8.5646    1.9617   65.2013 H       1  ZINC000484424341    0.1000
     49 H49       -10.3460   -2.3875   61.4255 H       1  ZINC000484424341    0.0900
     50 H50        -8.6129   -1.9532   61.3136 H       1  ZINC000484424341    0.0900
     51 H51        -8.1209   -0.3702   55.1940 H       1  ZINC000484424341    0.1300
@<TRIPOS>BOND
     1     1     2    1
     2     1    29    1
     3     1    30    1
     4     1    31    1
     5     2     3    1
     6     3     4    1
     7     3     5    1
     8     3     6    1
     9     5    32    1
    10     5    33    1
    11     5    34    1
    12     6    28   ar
    13     6     7   ar
    14     7     8   ar
    15     7    35    1
    16     8     9   ar
    17     8    36    1
    18     9    10   ar
    19     9    37    1
    20    10    11    1
    21    10    28   ar
    22    11    12   am
    23    11    38    1
    24    12    13    2
    25    12    14    1
    26    14    15    2
    27    14    16   am
    28    16    27    1
    29    16    17    1
    30    17    18    1
    31    17    39    1
    32    17    40    1
    33    18    19    1
    34    18    41    1
    35    18    42    1
    36    19    20    1
    37    19    21    1
    38    19    27    1
    39    21    25   am
    40    21    22    1
    41    22    23    1
    42    22    43    1
    43    22    44    1
    44    23    24    1
    45    23    45    1
    46    23    46    1
    47    24    25    1
    48    24    47    1
    49    24    48    1
    50    25    26    2
    51    27    49    1
    52    27    50    1
    53    28    51    1
@<TRIPOS>SUBSTRUCTURE
     1 ZINC000484424341        1 TEMP              0 ****  ****    0 ROOT


##########                                Name:    ZINC000508571532
##########                DOCK_Rotatable_Bonds:                   9
##########                         Heavy_Atoms:                  30
##########                    Molecular_Weight:             422.407
##########                DOCK_Rotatable_Bonds:                   9
##########                       Formal_Charge:           0.0100001
##########                     HBond_Acceptors:                  10
##########                        HBond_Donors:                   0
##########                         Heavy_Atoms:                  30
##########                          Grid_Score:          -31.776373
##########                     Grid_vdw_energy:          -31.242041
##########                      Grid_es_energy:           -0.534333
##########           Internal_energy_repulsive:           23.238249

@<TRIPOS>MOLECULE
ZINC000508571532
 51 53 1 0 0
SMALL
USER_CHARGES


@<TRIPOS>ATOM
      1 C1         -3.3550    2.6080   49.4344 C.3     1  ZINC000508571532    0.0300
      2 O2         -3.9680    3.1546   50.6037 O.3     1  ZINC000508571532   -0.3200
      3 C3         -4.8530    2.3616   51.2649 C.ar    1  ZINC000508571532    0.0900
      4 C4         -5.5551    2.8621   52.3512 C.ar    1  ZINC000508571532   -0.1700
      5 C5         -6.4542    2.0567   53.0230 C.ar    1  ZINC000508571532   -0.1100
      6 C6         -6.6549    0.7477   52.6108 C.ar    1  ZINC000508571532    0.0900
      7 O7         -7.5396   -0.0453   53.2724 O.3     1  ZINC000508571532   -0.3100
      8 C8         -8.0699    0.4582   54.5001 C.3     1  ZINC000508571532    0.1500
      9 C9         -8.8546   -0.6272   55.1910 C.2     1  ZINC000508571532    0.1700
     10 N10        -9.2084   -1.7709   54.6769 N.2     1  ZINC000508571532   -0.2500
     11 N11        -9.8674   -2.4575   55.5408 N.2     1  ZINC000508571532   -0.3000
     12 C12        -9.9700   -1.7831   56.6617 C.2     1  ZINC000508571532    0.3500
     13 N13       -10.6104   -2.1995   57.8180 N.3     1  ZINC000508571532   -0.4600
     14 C14        -9.6725   -2.2584   58.9471 C.3     1  ZINC000508571532    0.0300
     15 C15       -11.7539   -1.3311   58.1282 C.3     1  ZINC000508571532    0.1100
     16 C16       -12.9721   -2.1789   58.3899 C.ar    1  ZINC000508571532   -0.0900
     17 C17       -13.2256   -3.2859   57.6038 C.ar    1  ZINC000508571532   -0.0600
     18 C18       -14.3435   -4.0639   57.8431 C.ar    1  ZINC000508571532   -0.1300
     19 C19       -15.2096   -3.7364   58.8695 C.ar    1  ZINC000508571532   -0.0700
     20 C20       -14.9603   -2.6303   59.6590 C.ar    1  ZINC000508571532   -0.1900
     21 C21       -13.8368   -1.8513   59.4244 C.ar    1  ZINC000508571532    0.1100
     22 O22       -13.5893   -0.7628   60.1995 O.3     1  ZINC000508571532   -0.3100
     23 C23       -13.1524   -1.0056   61.5382 C.3     1  ZINC000508571532    0.6000
     24 F24       -14.2232   -1.4890   62.2979 F       1  ZINC000508571532   -0.1600
     25 F25       -12.1228   -1.9527   61.5282 F       1  ZINC000508571532   -0.1300
     26 F26       -12.6836    0.1871   62.0992 F       1  ZINC000508571532   -0.1600
     27 N27        -9.3221   -0.5967   56.4757 N.pl3   1  ZINC000508571532   -0.4500
     28 C28        -9.1678    0.4886   57.4474 C.3     1  ZINC000508571532    0.0800
     29 C29        -5.9538    0.2477   51.5236 C.ar    1  ZINC000508571532   -0.1700
     30 C30        -5.0576    1.0542   50.8495 C.ar    1  ZINC000508571532   -0.1100
     31 H31        -2.6732    3.3419   49.0047 H       1  ZINC000508571532    0.1000
     32 H32        -2.7996    1.7090   49.7018 H       1  ZINC000508571532    0.0600
     33 H33        -4.1246    2.3561   48.7047 H       1  ZINC000508571532    0.0600
     34 H34        -5.3988    3.8814   52.6722 H       1  ZINC000508571532    0.1400
     35 H35        -7.0004    2.4461   53.8694 H       1  ZINC000508571532    0.1300
     36 H36        -7.2519    0.7811   55.1440 H       1  ZINC000508571532    0.0800
     37 H37        -8.7250    1.3043   54.2929 H       1  ZINC000508571532    0.1000
     38 H38        -9.3599   -1.2486   59.2129 H       1  ZINC000508571532    0.0600
     39 H39       -10.1622   -2.7241   59.8023 H       1  ZINC000508571532    0.0800
     40 H40        -8.7994   -2.8462   58.6639 H       1  ZINC000508571532    0.0700
     41 H41       -11.5285   -0.7360   59.0132 H       1  ZINC000508571532    0.0700
     42 H42       -11.9466   -0.6688   57.2843 H       1  ZINC000508571532    0.0900
     43 H43       -12.5503   -3.5438   56.8013 H       1  ZINC000508571532    0.1400
     44 H44       -14.5404   -4.9287   57.2268 H       1  ZINC000508571532    0.1300
     45 H45       -16.0822   -4.3454   59.0542 H       1  ZINC000508571532    0.1400
     46 H46       -15.6375   -2.3747   60.4605 H       1  ZINC000508571532    0.1400
     47 H47        -8.2113    0.3845   57.9596 H       1  ZINC000508571532    0.0900
     48 H48        -9.2002    1.4473   56.9297 H       1  ZINC000508571532    0.0900
     49 H49        -9.9770    0.4417   58.1761 H       1  ZINC000508571532    0.1000
     50 H50        -6.1104   -0.7715   51.2024 H       1  ZINC000508571532    0.1400
     51 H51        -4.5116    0.6649   50.0029 H       1  ZINC000508571532    0.1400
@<TRIPOS>BOND
     1     1     2    1
     2     1    31    1
     3     1    32    1
     4     1    33    1
     5     2     3    1
     6     3    30   ar
     7     3     4   ar
     8     4     5   ar
     9     4    34    1
    10     5     6   ar
    11     5    35    1
    12     6     7    1
    13     6    29   ar
    14     7     8    1
    15     8     9    1
    16     8    36    1
    17     8    37    1
    18     9    27    1
    19     9    10    2
    20    10    11    1
    21    11    12    2
    22    12    13    1
    23    12    27    1
    24    13    14    1
    25    13    15    1
    26    14    38    1
    27    14    39    1
    28    14    40    1
    29    15    16    1
    30    15    41    1
    31    15    42    1
    32    16    21   ar
    33    16    17   ar
    34    17    18   ar
    35    17    43    1
    36    18    19   ar
    37    18    44    1
    38    19    20   ar
    39    19    45    1
    40    20    21   ar
    41    20    46    1
    42    21    22    1
    43    22    23    1
    44    23    24    1
    45    23    25    1
    46    23    26    1
    47    27    28    1
    48    28    47    1
    49    28    48    1
    50    28    49    1
    51    29    30   ar
    52    29    50    1
    53    30    51    1
@<TRIPOS>SUBSTRUCTURE
     1 ZINC000508571532        1 TEMP              0 ****  ****    0 ROOT


##########                                Name:    ZINC000301324012
##########                DOCK_Rotatable_Bonds:                   7
##########                         Heavy_Atoms:                  28
##########                    Molecular_Weight:               415.9
##########                DOCK_Rotatable_Bonds:                   7
##########                       Formal_Charge:          -0.0100002
##########                     HBond_Acceptors:                   8
##########                        HBond_Donors:                   2
##########                         Heavy_Atoms:                  28
##########                          Grid_Score:          -31.763472
##########                     Grid_vdw_energy:          -31.468317
##########                      Grid_es_energy:           -0.295154
##########           Internal_energy_repulsive:            9.561460

@<TRIPOS>MOLECULE
ZINC000301324012
 46 48 1 0 0
SMALL
USER_CHARGES


@<TRIPOS>ATOM
      1 C1         -3.3440    3.6557   49.4847 C.3     1  ZINC000301324012   -0.1600
      2 C2         -3.0103    2.2261   49.9158 C.3     1  ZINC000301324012    0.2000
      3 H3         -2.2535    2.2504   50.6999 H       1  ZINC000301324012    0.1100
      4 N4         -4.2197    1.5745   50.4246 N.am    1  ZINC000301324012   -0.7100
      5 C5         -4.6276    1.8033   51.6885 C.2     1  ZINC000301324012    0.5500
      6 O6         -3.9928    2.5516   52.4060 O.2     1  ZINC000301324012   -0.5300
      7 C7         -5.8472    1.1443   52.2024 C.ar    1  ZINC000301324012   -0.0700
      8 C8         -6.1462   -0.1667   51.8283 C.ar    1  ZINC000301324012   -0.1100
      9 C9         -7.2856   -0.7759   52.3118 C.ar    1  ZINC000301324012   -0.0200
     10 C10        -8.1312   -0.0902   53.1656 C.ar    1  ZINC000301324012   -0.6600
     11 S11        -9.5847   -0.8757   53.7783 S.o2    1  ZINC000301324012    2.6900
     12 O12        -9.3360   -2.2739   53.7294 O.2     1  ZINC000301324012   -0.9400
     13 O13        -9.9382   -0.1904   54.9718 O.2     1  ZINC000301324012   -0.9400
     14 N14       -10.7980   -0.5782   52.6913 N.am    1  ZINC000301324012   -1.0500
     15 C15       -11.1774    0.7372   52.4103 C.ar    1  ZINC000301324012    0.1600
     16 C16       -10.4803    1.4752   51.4631 C.ar    1  ZINC000301324012   -0.1600
     17 C17       -10.8578    2.7753   51.1875 C.ar    1  ZINC000301324012   -0.0800
     18 C18       -11.9283    3.3424   51.8538 C.ar    1  ZINC000301324012   -0.1200
     19 C19       -12.6255    2.6107   52.7981 C.ar    1  ZINC000301324012   -0.0900
     20 C20       -12.2573    1.3079   53.0743 C.ar    1  ZINC000301324012   -0.0600
     21 Cl21      -13.1327    0.3900   54.2596 Cl      1  ZINC000301324012   -0.0600
     22 C22        -7.8404    1.2094   53.5408 C.ar    1  ZINC000301324012   -0.0200
     23 C23        -6.7015    1.8284   53.0686 C.ar    1  ZINC000301324012   -0.0800
     24 C24        -2.4837    1.4548   48.7331 C.ar    1  ZINC000301324012    0.1200
     25 C25        -1.5520    0.4537   48.9306 C.ar    1  ZINC000301324012   -0.1600
     26 C26        -1.0741   -0.2503   47.8356 C.ar    1  ZINC000301324012   -0.0700
     27 C27        -1.5538    0.0808   46.5778 C.ar    1  ZINC000301324012   -0.1700
     28 C28        -2.4858    1.0945   46.4578 C.ar    1  ZINC000301324012    0.1100
     29 N29        -2.9216    1.7395   47.5221 N.ar    1  ZINC000301324012   -0.4900
     30 H30        -2.4442    4.1405   49.1062 H       1  ZINC000301324012    0.0700
     31 H31        -4.1009    3.6314   48.7007 H       1  ZINC000301324012    0.0600
     32 H32        -3.7249    4.2136   50.3402 H       1  ZINC000301324012    0.0700
     33 H33        -4.7269    0.9783   49.8517 H       1  ZINC000301324012    0.4100
     34 H34        -5.4873   -0.7028   51.1613 H       1  ZINC000301324012    0.1400
     35 H35        -7.5181   -1.7904   52.0230 H       1  ZINC000301324012    0.1500
     36 H36       -11.2455   -1.3169   52.2498 H       1  ZINC000301324012    0.4300
     37 H37        -9.6435    1.0335   50.9425 H       1  ZINC000301324012    0.1700
     38 H38       -10.3157    3.3496   50.4508 H       1  ZINC000301324012    0.1400
     39 H39       -12.2205    4.3592   51.6367 H       1  ZINC000301324012    0.1400
     40 H40       -13.4612    3.0567   53.3168 H       1  ZINC000301324012    0.1400
     41 H41        -8.5044    1.7391   54.2079 H       1  ZINC000301324012    0.1500
     42 H42        -6.4754    2.8428   53.3626 H       1  ZINC000301324012    0.1500
     43 H43        -1.2000    0.2227   49.9252 H       1  ZINC000301324012    0.1400
     44 H44        -0.3453   -1.0377   47.9598 H       1  ZINC000301324012    0.1400
     45 H45        -1.2034   -0.4463   45.7027 H       1  ZINC000301324012    0.1400
     46 H46        -2.8641    1.3588   45.4814 H       1  ZINC000301324012    0.1600
@<TRIPOS>BOND
     1     1     2    1
     2     1    30    1
     3     1    31    1
     4     1    32    1
     5     2     3    1
     6     2     4    1
     7     2    24    1
     8     4     5   am
     9     4    33    1
    10     5     6    2
    11     5     7    1
    12     7    23   ar
    13     7     8   ar
    14     8     9   ar
    15     8    34    1
    16     9    10   ar
    17     9    35    1
    18    10    11    1
    19    10    22   ar
    20    11    12    2
    21    11    13    2
    22    11    14   am
    23    14    15    1
    24    14    36    1
    25    15    20   ar
    26    15    16   ar
    27    16    17   ar
    28    16    37    1
    29    17    18   ar
    30    17    38    1
    31    18    19   ar
    32    18    39    1
    33    19    20   ar
    34    19    40    1
    35    20    21    1
    36    22    23   ar
    37    22    41    1
    38    23    42    1
    39    24    29   ar
    40    24    25   ar
    41    25    26   ar
    42    25    43    1
    43    26    27   ar
    44    26    44    1
    45    27    28   ar
    46    27    45    1
    47    28    29   ar
    48    28    46    1
@<TRIPOS>SUBSTRUCTURE
     1 ZINC000301324012        1 TEMP              0 ****  ****    0 ROOT


##########                                Name:    ZINC000450219577
##########                DOCK_Rotatable_Bonds:                   8
##########                         Heavy_Atoms:                  26
##########                    Molecular_Weight:             353.421
##########                DOCK_Rotatable_Bonds:                   8
##########                       Formal_Charge:          -0.0199997
##########                     HBond_Acceptors:                   6
##########                        HBond_Donors:                   1
##########                         Heavy_Atoms:                  26
##########                          Grid_Score:          -31.745470
##########                     Grid_vdw_energy:          -32.093990
##########                      Grid_es_energy:            0.348521
##########           Internal_energy_repulsive:           29.314589

@<TRIPOS>MOLECULE
ZINC000450219577
 49 51 1 0 0
SMALL
USER_CHARGES


@<TRIPOS>ATOM
      1 C1         -2.2914    2.0945   44.9412 C.3     1  ZINC000450219577   -0.1800
      2 C2         -1.0853    1.9627   45.8735 C.3     1  ZINC000450219577    0.1200
      3 C3         -0.7873    0.4817   46.1156 C.3     1  ZINC000450219577   -0.1800
      4 C4          0.1321    2.6293   45.2296 C.3     1  ZINC000450219577   -0.1400
      5 O5         -1.3789    2.6106   47.1392 O.3     1  ZINC000450219577   -0.3400
      6 C6         -2.2494    1.9924   47.9528 C.2     1  ZINC000450219577    0.4700
      7 O7         -3.1115    1.2842   47.4890 O.2     1  ZINC000450219577   -0.5000
      8 C8         -2.1514    2.1817   49.4446 C.3     1  ZINC000450219577    0.2000
      9 H9         -2.2168    3.2437   49.6812 H       1  ZINC000450219577    0.1400
     10 N10        -3.2489    1.4668   50.1007 N.am    1  ZINC000450219577   -0.7100
     11 C11        -4.0951    2.1304   50.9132 C.2     1  ZINC000450219577    0.5800
     12 O12        -3.9485    3.3225   51.1003 O.2     1  ZINC000450219577   -0.5200
     13 C13        -5.2015    1.4087   51.5766 C.ar    1  ZINC000450219577   -0.2500
     14 C14        -6.0421    2.0600   52.4865 C.ar    1  ZINC000450219577    0.1900
     15 N15        -7.0191    1.3766   53.0561 N.ar    1  ZINC000450219577   -0.5100
     16 C16        -7.2070    0.1013   52.7782 C.ar    1  ZINC000450219577    0.3800
     17 C17        -8.3352   -0.6342   53.4541 C.3     1  ZINC000450219577   -0.1100
     18 C18        -8.9071   -0.0260   54.7363 C.3     1  ZINC000450219577   -0.1500
     19 C19        -9.7167    0.0235   53.4390 C.3     1  ZINC000450219577   -0.1500
     20 N20        -6.4392   -0.5507   51.9270 N.ar    1  ZINC000450219577   -0.5200
     21 C21        -5.4418    0.0564   51.3082 C.ar    1  ZINC000450219577    0.2200
     22 C22        -0.8340    1.6381   49.9345 C.ar    1  ZINC000450219577   -0.1100
     23 C23        -0.0740    2.3691   50.8283 C.ar    1  ZINC000450219577   -0.1000
     24 C24         1.1343    1.8703   51.2778 C.ar    1  ZINC000450219577   -0.1200
     25 C25         1.5825    0.6404   50.8337 C.ar    1  ZINC000450219577   -0.1100
     26 C26         0.8222   -0.0911   49.9406 C.ar    1  ZINC000450219577   -0.1200
     27 C27        -0.3883    0.4057   49.4945 C.ar    1  ZINC000450219577   -0.0800
     28 H28        -3.1587    1.6196   45.3998 H       1  ZINC000450219577    0.0800
     29 H29        -2.5036    3.1495   44.7687 H       1  ZINC000450219577    0.0600
     30 H30        -2.0709    1.6081   43.9910 H       1  ZINC000450219577    0.0700
     31 H31        -0.5669   -0.0047   45.1654 H       1  ZINC000450219577    0.0700
     32 H32         0.0720    0.3879   46.7797 H       1  ZINC000450219577    0.0600
     33 H33        -1.6546    0.0068   46.5743 H       1  ZINC000450219577    0.0800
     34 H34        -0.0802    3.6844   45.0571 H       1  ZINC000450219577    0.0700
     35 H35         0.9913    2.5354   45.8937 H       1  ZINC000450219577    0.0700
     36 H36         0.3525    2.1429   44.2793 H       1  ZINC000450219577    0.0800
     37 H37        -3.3668    0.5158   49.9504 H       1  ZINC000450219577    0.4100
     38 H38        -5.8943    3.1042   52.7196 H       1  ZINC000450219577    0.1700
     39 H39        -8.2947   -1.7214   53.3870 H       1  ZINC000450219577    0.1300
     40 H40        -9.2428   -0.7131   55.5131 H       1  ZINC000450219577    0.1000
     41 H41        -8.4672    0.9061   55.0909 H       1  ZINC000450219577    0.1100
     42 H42        -9.8093    0.9882   52.9401 H       1  ZINC000450219577    0.1000
     43 H43       -10.5849   -0.6310   53.3622 H       1  ZINC000450219577    0.1100
     44 H44        -4.8173   -0.4843   50.6125 H       1  ZINC000450219577    0.1800
     45 H45        -0.4242    3.3300   51.1753 H       1  ZINC000450219577    0.1200
     46 H46         1.7284    2.4418   51.9756 H       1  ZINC000450219577    0.1200
     47 H47         2.5269    0.2511   51.1844 H       1  ZINC000450219577    0.1300
     48 H48         1.1725   -1.0519   49.5935 H       1  ZINC000450219577    0.1300
     49 H49        -0.9823   -0.1657   48.7967 H       1  ZINC000450219577    0.1300
@<TRIPOS>BOND
     1     1     2    1
     2     1    28    1
     3     1    29    1
     4     1    30    1
     5     2     3    1
     6     2     4    1
     7     2     5    1
     8     3    31    1
     9     3    32    1
    10     3    33    1
    11     4    34    1
    12     4    35    1
    13     4    36    1
    14     5     6    1
    15     6     7    2
    16     6     8    1
    17     8     9    1
    18     8    10    1
    19     8    22    1
    20    10    11   am
    21    10    37    1
    22    11    12    2
    23    11    13    1
    24    13    21   ar
    25    13    14   ar
    26    14    15   ar
    27    14    38    1
    28    15    16   ar
    29    16    17    1
    30    16    20   ar
    31    17    19    1
    32    17    18    1
    33    17    39    1
    34    18    19    1
    35    18    40    1
    36    18    41    1
    37    19    42    1
    38    19    43    1
    39    20    21   ar
    40    21    44    1
    41    22    27   ar
    42    22    23   ar
    43    23    24   ar
    44    23    45    1
    45    24    25   ar
    46    24    46    1
    47    25    26   ar
    48    25    47    1
    49    26    27   ar
    50    26    48    1
    51    27    49    1
@<TRIPOS>SUBSTRUCTURE
     1 ZINC000450219577        1 TEMP              0 ****  ****    0 ROOT


##########                                Name:    ZINC000284209281
##########                DOCK_Rotatable_Bonds:                   8
##########                         Heavy_Atoms:                  26
##########                    Molecular_Weight:             353.424
##########                DOCK_Rotatable_Bonds:                   8
##########                       Formal_Charge:          0.00999954
##########                     HBond_Acceptors:                   7
##########                        HBond_Donors:                   1
##########                         Heavy_Atoms:                  26
##########                          Grid_Score:          -31.707897
##########                     Grid_vdw_energy:          -31.251162
##########                      Grid_es_energy:           -0.456736
##########           Internal_energy_repulsive:           11.265784

@<TRIPOS>MOLECULE
ZINC000284209281
 49 51 1 0 0
SMALL
USER_CHARGES


@<TRIPOS>ATOM
      1 O1         -5.7261    3.5682   52.1604 O.2     1  <0>        -0.5100
      2 C2         -4.9328    2.6869   52.4183 C.2     1  <0>         0.5100
      3 N3         -3.8847    2.9392   53.2270 N.am    1  <0>        -0.7000
      4 C4         -3.6996    4.2790   53.7899 C.3     1  <0>         0.1200
      5 C5         -3.6093    4.1838   55.3143 C.3     1  <0>        -0.1000
      6 C6         -2.3125    3.5203   55.7002 C.ar    1  <0>        -0.0400
      7 C7         -1.0955    4.1165   55.4069 C.ar    1  <0>        -0.1700
      8 C8          0.0734    3.4784   55.7762 C.ar    1  <0>         0.1000
      9 N9          0.0398    2.3168   56.3995 N.ar    1  <0>        -0.4900
     10 C10        -1.0989    1.7208   56.6946 C.ar    1  <0>         0.1000
     11 C11        -2.3079    2.3020   56.3620 C.ar    1  <0>        -0.1700
     12 C12        -5.1216    1.3201   51.8441 C.2     1  <0>         0.5100
     13 O13        -4.4171    0.9430   50.9308 O.2     1  <0>        -0.5200
     14 N14        -6.0744    0.5063   52.3405 N.am    1  <0>        -0.5800
     15 C15        -6.9430    0.9457   53.4430 C.3     1  <0>         0.0800
     16 C16        -8.4014    0.6996   53.0415 C.3     1  <0>         0.0400
     17 N17        -8.5658   -0.7048   52.6429 N.3     1  <0>        -0.5300
     18 C18        -9.9813   -1.0251   52.4155 C.3     1  <0>         0.1000
     19 C19       -10.5904   -1.5437   53.6926 C.ar    1  <0>         0.1300
     20 C20       -11.8751   -1.1694   54.0377 C.ar    1  <0>        -0.1500
     21 C21       -12.4265   -1.6526   55.2147 C.ar    1  <0>        -0.0700
     22 C22       -11.6615   -2.4977   56.0036 C.ar    1  <0>        -0.1700
     23 C23       -10.3835   -2.8283   55.5937 C.ar    1  <0>         0.1000
     24 N24        -9.8933   -2.3539   54.4653 N.ar    1  <0>        -0.4800
     25 C25        -7.7576   -1.0204   51.4576 C.3     1  <0>         0.0400
     26 C26        -6.2770   -0.8425   51.7901 C.3     1  <0>         0.1100
     27 H27        -3.2528    2.2336   53.4364 H       1  <0>         0.4100
     28 H28        -2.7803    4.7140   53.3979 H       1  <0>         0.0800
     29 H29        -4.5457    4.9087   53.5147 H       1  <0>         0.0800
     30 H30        -3.6470    5.1850   55.7437 H       1  <0>         0.0900
     31 H31        -4.4453    3.5948   55.6917 H       1  <0>         0.0900
     32 H32        -1.0614    5.0674   54.8960 H       1  <0>         0.1400
     33 H33         1.0255    3.9361   55.5515 H       1  <0>         0.1600
     34 H34        -1.0866    0.7694   57.2055 H       1  <0>         0.1600
     35 H35        -3.2372    1.8091   56.6066 H       1  <0>         0.1400
     36 H36        -6.7098    0.3758   54.3424 H       1  <0>         0.0800
     37 H37        -6.7890    2.0086   53.6294 H       1  <0>         0.1400
     38 H38        -9.0531    0.9162   53.8879 H       1  <0>         0.0900
     39 H39        -8.6628    1.3480   52.2053 H       1  <0>         0.0400
     40 H40       -10.5109   -0.1265   52.0990 H       1  <0>         0.0900
     41 H41       -10.0614   -1.7863   51.6395 H       1  <0>         0.0600
     42 H42       -12.4423   -0.5087   53.3990 H       1  <0>         0.1400
     43 H43       -13.4281   -1.3767   55.5101 H       1  <0>         0.1400
     44 H44       -12.0588   -2.8925   56.9270 H       1  <0>         0.1400
     45 H45        -9.7809   -3.4858   56.2027 H       1  <0>         0.1600
     46 H46        -7.9425   -2.0511   51.1552 H       1  <0>         0.1000
     47 H47        -8.0279   -0.3480   50.6433 H       1  <0>         0.0400
     48 H48        -5.6814   -0.9638   50.8853 H       1  <0>         0.1000
     49 H49        -5.9767   -1.5829   52.5315 H       1  <0>         0.0800
@<TRIPOS>BOND
     1     1     2    2
     2     2     3   am
     3     2    12    1
     4     3     4    1
     5     3    27    1
     6     4     5    1
     7     4    28    1
     8     4    29    1
     9     5     6    1
    10     5    30    1
    11     5    31    1
    12     6    11   ar
    13     6     7   ar
    14     7     8   ar
    15     7    32    1
    16     8     9   ar
    17     8    33    1
    18     9    10   ar
    19    10    11   ar
    20    10    34    1
    21    11    35    1
    22    12    13    2
    23    12    14   am
    24    14    26    1
    25    14    15    1
    26    15    16    1
    27    15    36    1
    28    15    37    1
    29    16    17    1
    30    16    38    1
    31    16    39    1
    32    17    18    1
    33    17    25    1
    34    18    19    1
    35    18    40    1
    36    18    41    1
    37    19    24   ar
    38    19    20   ar
    39    20    21   ar
    40    20    42    1
    41    21    22   ar
    42    21    43    1
    43    22    23   ar
    44    22    44    1
    45    23    24   ar
    46    23    45    1
    47    25    26    1
    48    25    46    1
    49    25    47    1
    50    26    48    1
    51    26    49    1
@<TRIPOS>SUBSTRUCTURE
     1 <0>         1 TEMP              0 ****  ****    0 ROOT


##########                                Name:    ZINC000433961694
##########                DOCK_Rotatable_Bonds:                   7
##########                         Heavy_Atoms:                  29
##########                    Molecular_Weight:             413.472
##########                DOCK_Rotatable_Bonds:                   7
##########                       Formal_Charge:          0.00999992
##########                     HBond_Acceptors:                   8
##########                        HBond_Donors:                   0
##########                         Heavy_Atoms:                  29
##########                          Grid_Score:          -31.703077
##########                     Grid_vdw_energy:          -30.827705
##########                      Grid_es_energy:           -0.875372
##########           Internal_energy_repulsive:           15.044105

@<TRIPOS>MOLECULE
ZINC000433961694
 49 52 1 0 0
SMALL
USER_CHARGES


@<TRIPOS>ATOM
      1 C1         -2.4093    3.4589   53.6208 C.3     1  ZINC000433961694   -0.1000
      2 C2         -2.5823    3.3511   52.1277 C.2     1  ZINC000433961694    0.1600
      3 C3         -3.7679    3.0461   51.5432 C.2     1  ZINC000433961694   -0.3000
      4 C4         -5.0317    2.7798   52.2385 C.2     1  ZINC000433961694    0.6200
      5 O5         -5.4670    3.5858   53.0395 O.2     1  ZINC000433961694   -0.5100
      6 N6         -5.7107    1.6424   51.9902 N.am    1  ZINC000433961694   -0.6100
      7 C7         -5.3003    0.5847   51.0487 C.3     1  ZINC000433961694    0.1100
      8 C8         -6.0030   -0.6971   51.5613 C.3     1  ZINC000433961694   -0.1300
      9 C9         -7.3646   -0.1331   52.0466 C.3     1  ZINC000433961694    0.0800
     10 H10        -8.0586   -0.0298   51.2124 H       1  ZINC000433961694    0.1000
     11 O11        -7.9222   -0.9652   53.0657 O.3     1  ZINC000433961694   -0.2900
     12 C12        -9.1596   -0.6395   53.5188 C.ar    1  ZINC000433961694    0.1700
     13 C13        -9.7061   -1.2818   54.6270 C.ar    1  ZINC000433961694   -0.2600
     14 C14       -10.9669   -0.9221   55.0566 C.ar    1  ZINC000433961694    0.1400
     15 N15       -11.6520    0.0167   54.4317 N.ar    1  ZINC000433961694   -0.5100
     16 C16       -11.1682    0.6478   53.3785 C.ar    1  ZINC000433961694    0.1400
     17 C17        -9.9124    0.3496   52.8908 C.ar    1  ZINC000433961694   -0.2000
     18 C18        -6.9803    1.2479   52.6181 C.3     1  ZINC000433961694    0.0600
     19 S19        -3.5176    3.0276   49.7990 S.3     1  ZINC000433961694    0.2100
     20 C20        -1.8700    3.4254   50.0218 C.2     1  ZINC000433961694    0.0400
     21 C21        -0.8720    3.6117   48.9081 C.3     1  ZINC000433961694    0.1400
     22 O22         0.2051    2.6873   49.0741 O.3     1  ZINC000433961694   -0.3000
     23 C23        -0.0284    1.3968   48.7159 C.ar    1  ZINC000433961694    0.1200
     24 C24         0.1259    0.3794   49.6460 C.ar    1  ZINC000433961694   -0.1800
     25 C25        -0.1117   -0.9315   49.2806 C.ar    1  ZINC000433961694   -0.1100
     26 C26        -0.5031   -1.2301   47.9865 C.ar    1  ZINC000433961694    0.0600
     27 F27        -0.7347   -2.5125   47.6303 F       1  ZINC000433961694   -0.1400
     28 C28        -0.6579   -0.2154   47.0572 C.ar    1  ZINC000433961694   -0.1100
     29 C29        -0.4266    1.0970   47.4215 C.ar    1  ZINC000433961694   -0.1200
     30 N30        -1.6024    3.5493   51.2820 N.2     1  ZINC000433961694   -0.4500
     31 H31        -2.6073    4.4833   53.9365 H       1  ZINC000433961694    0.0800
     32 H32        -3.1072    2.7845   54.1170 H       1  ZINC000433961694    0.1000
     33 H33        -1.3884    3.1869   53.8890 H       1  ZINC000433961694    0.0800
     34 H34        -5.6362    0.8238   50.0397 H       1  ZINC000433961694    0.0800
     35 H35        -4.2179    0.4580   51.0690 H       1  ZINC000433961694    0.1000
     36 H36        -6.1431   -1.4154   50.7536 H       1  ZINC000433961694    0.1000
     37 H37        -5.4483   -1.1432   52.3868 H       1  ZINC000433961694    0.1000
     38 H38        -9.1508   -2.0513   55.1428 H       1  ZINC000433961694    0.1400
     39 H39       -11.3987   -1.4153   55.9150 H       1  ZINC000433961694    0.1600
     40 H40       -11.7608    1.4103   52.8950 H       1  ZINC000433961694    0.1700
     41 H41        -9.5222    0.8700   52.0287 H       1  ZINC000433961694    0.1400
     42 H42        -6.8598    1.1812   53.6993 H       1  ZINC000433961694    0.0900
     43 H43        -7.7517    1.9780   52.3732 H       1  ZINC000433961694    0.0800
     44 H44        -1.3595    3.4332   47.9497 H       1  ZINC000433961694    0.0900
     45 H45        -0.4842    4.6300   48.9343 H       1  ZINC000433961694    0.1000
     46 H46         0.4320    0.6120   50.6552 H       1  ZINC000433961694    0.1400
     47 H47         0.0084   -1.7239   50.0045 H       1  ZINC000433961694    0.1400
     48 H48        -0.9636   -0.4496   46.0482 H       1  ZINC000433961694    0.1500
     49 H49        -0.5474    1.8882   46.6965 H       1  ZINC000433961694    0.1400
@<TRIPOS>BOND
     1     1     2    1
     2     1    31    1
     3     1    32    1
     4     1    33    1
     5     2    30    1
     6     2     3    2
     7     3     4    1
     8     3    19    1
     9     4     5    2
    10     4     6   am
    11     6    18    1
    12     6     7    1
    13     7     8    1
    14     7    34    1
    15     7    35    1
    16     8     9    1
    17     8    36    1
    18     8    37    1
    19     9    10    1
    20     9    11    1
    21     9    18    1
    22    11    12    1
    23    12    17   ar
    24    12    13   ar
    25    13    14   ar
    26    13    38    1
    27    14    15   ar
    28    14    39    1
    29    15    16   ar
    30    16    17   ar
    31    16    40    1
    32    17    41    1
    33    18    42    1
    34    18    43    1
    35    19    20    1
    36    20    21    1
    37    20    30    2
    38    21    22    1
    39    21    44    1
    40    21    45    1
    41    22    23    1
    42    23    29   ar
    43    23    24   ar
    44    24    25   ar
    45    24    46    1
    46    25    26   ar
    47    25    47    1
    48    26    27    1
    49    26    28   ar
    50    28    29   ar
    51    28    48    1
    52    29    49    1
@<TRIPOS>SUBSTRUCTURE
     1 ZINC000433961694        1 TEMP              0 ****  ****    0 ROOT


##########                                Name:    ZINC000266467123
##########                DOCK_Rotatable_Bonds:                   9
##########                         Heavy_Atoms:                  25
##########                    Molecular_Weight:             337.421
##########                DOCK_Rotatable_Bonds:                   9
##########                       Formal_Charge:                0.02
##########                     HBond_Acceptors:                   5
##########                        HBond_Donors:                   3
##########                         Heavy_Atoms:                  25
##########                          Grid_Score:          -31.678770
##########                     Grid_vdw_energy:          -30.372456
##########                      Grid_es_energy:           -1.306315
##########           Internal_energy_repulsive:           14.063028

@<TRIPOS>MOLECULE
ZINC000266467123
 48 50 1 0 0
SMALL
USER_CHARGES


@<TRIPOS>ATOM
      1 C1         -4.4887    4.2561   52.4363 C.3     1  <0>        -0.1600
      2 C2         -4.4954    2.8511   51.8306 C.3     1  <0>         0.1500
      3 H3         -3.6032    2.3131   52.1510 H       1  <0>         0.1200
      4 N4         -4.5076    2.9495   50.3690 N.am    1  <0>        -0.7300
      5 C5         -3.3765    3.2592   49.7048 C.2     1  <0>         0.7100
      6 O6         -2.3455    3.4555   50.3187 O.2     1  <0>        -0.5900
      7 N7         -3.3882    3.3513   48.3603 N.am    1  <0>        -0.7100
      8 C8         -2.1583    3.6862   47.6383 C.3     1  <0>         0.1100
      9 H9         -1.5126    4.4180   48.1237 H       1  <0>         0.1400
     10 C10        -2.2182    3.7009   46.1095 C.3     1  <0>        -0.1900
     11 C11        -1.4840    2.5713   46.8363 C.3     1  <0>        -0.1500
     12 H12        -0.3949    2.5697   46.7937 H       1  <0>         0.1200
     13 C13        -2.1458    1.1918   46.8487 C.3     1  <0>        -0.0500
     14 C14        -1.2150    0.1938   47.4881 C.ar    1  <0>        -0.0800
     15 C15        -0.3635    0.5934   48.5011 C.ar    1  <0>        -0.1100
     16 C16         0.4902   -0.3221   49.0876 C.ar    1  <0>        -0.1200
     17 C17         0.4921   -1.6371   48.6616 C.ar    1  <0>        -0.1200
     18 C18        -0.3602   -2.0368   47.6492 C.ar    1  <0>        -0.1200
     19 C19        -1.2170   -1.1224   47.0655 C.ar    1  <0>        -0.1200
     20 C20        -5.7228    2.1100   52.2946 C.2     1  <0>         0.5100
     21 O21        -6.4124    2.5724   53.1785 O.2     1  <0>        -0.5100
     22 N22        -6.0541    0.9333   51.7270 N.am    1  <0>        -0.6700
     23 C23        -7.1938    0.2451   52.1578 C.ar    1  <0>         0.1400
     24 C24        -7.3136   -0.1391   53.4870 C.ar    1  <0>        -0.1400
     25 C25        -8.4398   -0.8183   53.9090 C.ar    1  <0>        -0.1000
     26 C26        -9.4471   -1.1160   53.0097 C.ar    1  <0>        -0.1300
     27 C27        -9.3305   -0.7352   51.6854 C.ar    1  <0>        -0.1000
     28 C28        -8.2099   -0.0499   51.2584 C.ar    1  <0>        -0.1200
     29 H29        -4.4795    4.1830   53.5237 H       1  <0>         0.0700
     30 H30        -3.6009    4.7923   52.1007 H       1  <0>         0.0800
     31 H31        -5.3808    4.7942   52.1158 H       1  <0>         0.0700
     32 H32        -5.3299    2.7917   49.8791 H       1  <0>         0.4100
     33 H33        -4.2110    3.1958   47.8707 H       1  <0>         0.4000
     34 H34        -3.1727    3.4613   45.6409 H       1  <0>         0.1000
     35 H35        -1.6117    4.4421   45.5891 H       1  <0>         0.1000
     36 H36        -3.0741    1.2394   47.4180 H       1  <0>         0.0800
     37 H37        -2.3622    0.8834   45.8260 H       1  <0>         0.0700
     38 H38        -0.3650    1.6208   48.8340 H       1  <0>         0.1200
     39 H39         1.1560   -0.0097   49.8786 H       1  <0>         0.1200
     40 H40         1.1596   -2.3521   49.1193 H       1  <0>         0.1200
     41 H41        -0.3585   -3.0641   47.3160 H       1  <0>         0.1200
     42 H42        -1.8827   -1.4346   46.2747 H       1  <0>         0.1200
     43 H43        -5.5026    0.5635   51.0201 H       1  <0>         0.4100
     44 H44        -6.5270    0.0925   54.1897 H       1  <0>         0.1300
     45 H45        -8.5336   -1.1174   54.9425 H       1  <0>         0.1300
     46 H46       -10.3266   -1.6475   53.3420 H       1  <0>         0.1200
     47 H47       -10.1186   -0.9698   50.9853 H       1  <0>         0.1300
     48 H48        -8.1194    0.2472   50.2241 H       1  <0>         0.1400
@<TRIPOS>BOND
     1     1     2    1
     2     1    29    1
     3     1    30    1
     4     1    31    1
     5     2     3    1
     6     2     4    1
     7     2    20    1
     8     4     5   am
     9     4    32    1
    10     5     6    2
    11     5     7   am
    12     7     8    1
    13     7    33    1
    14     8     9    1
    15     8    11    1
    16     8    10    1
    17    10    11    1
    18    10    34    1
    19    10    35    1
    20    11    12    1
    21    11    13    1
    22    13    14    1
    23    13    36    1
    24    13    37    1
    25    14    19   ar
    26    14    15   ar
    27    15    16   ar
    28    15    38    1
    29    16    17   ar
    30    16    39    1
    31    17    18   ar
    32    17    40    1
    33    18    19   ar
    34    18    41    1
    35    19    42    1
    36    20    21    2
    37    20    22   am
    38    22    23    1
    39    22    43    1
    40    23    28   ar
    41    23    24   ar
    42    24    25   ar
    43    24    44    1
    44    25    26   ar
    45    25    45    1
    46    26    27   ar
    47    26    46    1
    48    27    28   ar
    49    27    47    1
    50    28    48    1
@<TRIPOS>SUBSTRUCTURE
     1 <0>         1 TEMP              0 ****  ****    0 ROOT


##########                                Name:    ZINC001411334959
##########                DOCK_Rotatable_Bonds:                   9
##########                         Heavy_Atoms:                  24
##########                    Molecular_Weight:              339.37
##########                DOCK_Rotatable_Bonds:                   9
##########                       Formal_Charge:           0.0199995
##########                     HBond_Acceptors:                   9
##########                        HBond_Donors:                   3
##########                         Heavy_Atoms:                  24
##########                          Grid_Score:          -31.670824
##########                     Grid_vdw_energy:          -29.180403
##########                      Grid_es_energy:           -2.490422
##########           Internal_energy_repulsive:           11.528855

@<TRIPOS>MOLECULE
ZINC001411334959
 46 48 1 0 0
SMALL
USER_CHARGES


@<TRIPOS>ATOM
      1 O1         -0.3572   -0.3560   45.8433 O.2     1  ZINC001411334959   -0.5400
      2 C2          0.2682    0.5760   46.3027 C.2     1  ZINC001411334959    0.5200
      3 C3          1.7718    0.5965   46.2033 C.3     1  ZINC001411334959   -0.1400
      4 C4          2.3437    1.4912   47.3049 C.3     1  ZINC001411334959   -0.0100
      5 C5          1.9195    0.9636   48.6513 C.2     1  ZINC001411334959    0.0100
      6 N6          1.6246   -0.2796   48.9572 N.2     1  ZINC001411334959   -0.2800
      7 N7          1.3094   -0.3344   50.2028 N.pl3   1  ZINC001411334959   -0.2500
      8 N8          1.3826    0.8301   50.7432 N.2     1  ZINC001411334959   -0.2800
      9 C9          1.7652    1.6949   49.8312 C.2     1  ZINC001411334959   -0.0200
     10 N10        -0.3817    1.5961   46.8973 N.am    1  ZINC001411334959   -0.7200
     11 C11        -1.8434    1.5762   46.9940 C.3     1  ZINC001411334959    0.1200
     12 C12        -2.3754    0.6415   48.0933 C.3     1  ZINC001411334959   -0.1400
     13 C13        -3.4183    1.7283   48.4031 C.3     1  ZINC001411334959   -0.1200
     14 C14        -3.6765    1.9215   49.8987 C.3     1  ZINC001411334959    0.1300
     15 N15        -4.5484    0.8499   50.3861 N.am    1  ZINC001411334959   -0.7200
     16 C16        -5.4667    1.1089   51.3380 C.2     1  ZINC001411334959    0.5100
     17 O17        -5.5722    2.2293   51.7901 O.2     1  ZINC001411334959   -0.5100
     18 C18        -6.3625    0.0062   51.8407 C.3     1  ZINC001411334959    0.0700
     19 F19        -5.6055   -1.0803   52.2923 F       1  ZINC001411334959   -0.1800
     20 C20        -7.3087    0.5279   52.9562 C.3     1  ZINC001411334959   -0.1600
     21 C21        -8.5144   -0.4314   52.7917 C.3     1  ZINC001411334959    0.0500
     22 O22        -8.6249   -0.6557   51.3772 O.3     1  ZINC001411334959   -0.3700
     23 C23        -7.3581   -0.4349   50.7464 C.3     1  ZINC001411334959    0.0400
     24 C24        -2.4225    2.7412   47.8139 C.3     1  ZINC001411334959   -0.1400
     25 H25         2.1576   -0.4162   46.3209 H       1  ZINC001411334959    0.1000
     26 H26         2.0662    0.9866   45.2290 H       1  ZINC001411334959    0.1000
     27 H27         3.4318    1.4942   47.2421 H       1  ZINC001411334959    0.1000
     28 H28         1.9697    2.5072   47.1784 H       1  ZINC001411334959    0.0900
     29 H29         1.0513   -1.1439   50.6707 H       1  ZINC001411334959    0.4700
     30 H30         1.9216    2.7552   49.9647 H       1  ZINC001411334959    0.2000
     31 H31         0.1183    2.3434   47.2612 H       1  ZINC001411334959    0.4000
     32 H32        -2.3297    1.4376   46.0284 H       1  ZINC001411334959    0.1200
     33 H33        -2.8081   -0.2822   47.7094 H       1  ZINC001411334959    0.0800
     34 H34        -1.6664    0.4731   48.9039 H       1  ZINC001411334959    0.0900
     35 H35        -4.3367    1.6297   47.8243 H       1  ZINC001411334959    0.1000
     36 H36        -2.7294    1.8927   50.4376 H       1  ZINC001411334959    0.0800
     37 H37        -4.1586    2.8852   50.0627 H       1  ZINC001411334959    0.0800
     38 H38        -4.4649   -0.0460   50.0237 H       1  ZINC001411334959    0.4100
     39 H39        -6.8526    0.4204   53.9403 H       1  ZINC001411334959    0.1000
     40 H40        -7.6011    1.5616   52.7716 H       1  ZINC001411334959    0.1100
     41 H41        -8.3236   -1.3711   53.3100 H       1  ZINC001411334959    0.0700
     42 H42        -9.4231    0.0343   53.1732 H       1  ZINC001411334959    0.1000
     43 H43        -7.4512    0.3482   49.9939 H       1  ZINC001411334959    0.0900
     44 H44        -7.0111   -1.3573   50.2808 H       1  ZINC001411334959    0.0900
     45 H45        -1.7264    3.1468   48.5481 H       1  ZINC001411334959    0.0900
     46 H46        -2.8933    3.5124   47.2044 H       1  ZINC001411334959    0.0800
@<TRIPOS>BOND
     1     1     2    2
     2     2     3    1
     3     2    10   am
     4     3     4    1
     5     3    25    1
     6     3    26    1
     7     4     5    1
     8     4    27    1
     9     4    28    1
    10     5     9    1
    11     5     6    2
    12     6     7    1
    13     7     8    1
    14     7    29    1
    15     8     9    2
    16     9    30    1
    17    10    11    1
    18    10    31    1
    19    11    24    1
    20    11    12    1
    21    11    32    1
    22    12    13    1
    23    12    33    1
    24    12    34    1
    25    13    14    1
    26    13    24    1
    27    13    35    1
    28    14    15    1
    29    14    36    1
    30    14    37    1
    31    15    16   am
    32    15    38    1
    33    16    17    2
    34    16    18    1
    35    18    23    1
    36    18    19    1
    37    18    20    1
    38    20    21    1
    39    20    39    1
    40    20    40    1
    41    21    22    1
    42    21    41    1
    43    21    42    1
    44    22    23    1
    45    23    43    1
    46    23    44    1
    47    24    45    1
    48    24    46    1
@<TRIPOS>SUBSTRUCTURE
     1 ZINC001411334959        1 TEMP              0 ****  ****    0 ROOT


##########                                Name:    ZINC001342629575
##########                DOCK_Rotatable_Bonds:                   9
##########                         Heavy_Atoms:                  29
##########                    Molecular_Weight:             396.533
##########                DOCK_Rotatable_Bonds:                   9
##########                       Formal_Charge:         -0.00999976
##########                     HBond_Acceptors:                   6
##########                        HBond_Donors:                   0
##########                         Heavy_Atoms:                  29
##########                          Grid_Score:          -31.667542
##########                     Grid_vdw_energy:          -31.039879
##########                      Grid_es_energy:           -0.627663
##########           Internal_energy_repulsive:           21.868521

@<TRIPOS>MOLECULE
ZINC001342629575
 61 64 1 0 0
SMALL
USER_CHARGES


@<TRIPOS>ATOM
      1 C1         -9.4245   -1.5323   60.7422 C.2     1  ZINC001342629575   -0.1800
      2 C2        -10.0954   -2.6371   60.5291 C.2     1  ZINC001342629575   -0.1600
      3 C3        -10.4040   -3.0712   59.1194 C.3     1  ZINC001342629575   -0.0800
      4 C4        -11.3783   -2.0786   58.4819 C.3     1  ZINC001342629575    0.0500
      5 H5        -11.2014   -1.0832   58.8892 H       1  ZINC001342629575    0.0900
      6 C6        -11.1674   -2.0555   56.9899 C.2     1  ZINC001342629575    0.2000
      7 N7        -10.9442   -3.0869   56.2255 N.2     1  ZINC001342629575   -0.2700
      8 N8        -10.8111   -2.7096   55.0041 N.2     1  ZINC001342629575   -0.3000
      9 C9        -10.9434   -1.4066   54.9230 C.2     1  ZINC001342629575    0.3400
     10 N10       -10.8631   -0.6405   53.7710 N.3     1  ZINC001342629575   -0.4300
     11 C11       -12.1875   -0.5398   53.1054 C.3     1  ZINC001342629575    0.0400
     12 C12       -11.8608   -0.1626   51.6444 C.3     1  ZINC001342629575   -0.1200
     13 C13       -10.4178   -0.6576   51.4157 C.3     1  ZINC001342629575   -0.1200
     14 C14        -9.9939   -1.2923   52.7576 C.3     1  ZINC001342629575    0.0700
     15 H15       -10.1694   -2.3679   52.7417 H       1  ZINC001342629575    0.0900
     16 C16        -8.5206   -0.9971   53.0457 C.3     1  ZINC001342629575    0.1000
     17 H17        -8.1896   -1.5752   53.9085 H       1  ZINC001342629575    0.0700
     18 C18        -8.3326    0.5101   53.3218 C.3     1  ZINC001342629575   -0.1400
     19 C19        -6.9870    0.8108   52.6071 C.3     1  ZINC001342629575   -0.1600
     20 C20        -7.0747   -0.1532   51.3971 C.3     1  ZINC001342629575    0.0500
     21 O21        -7.7254   -1.3322   51.9025 O.3     1  ZINC001342629575   -0.3700
     22 N22       -11.1807   -0.9491   56.1864 N.pl3   1  ZINC001342629575   -0.4600
     23 C23       -11.3954    0.4403   56.5983 C.3     1  ZINC001342629575    0.1100
     24 C24       -12.8878    0.6760   56.8394 C.3     1  ZINC001342629575    0.0500
     25 O25       -13.0814    1.9811   57.3881 O.3     1  ZINC001342629575   -0.3800
     26 C26       -14.4490    2.3069   57.6443 C.3     1  ZINC001342629575    0.0300
     27 C27       -12.7935   -2.5001   58.7827 C.ar    1  ZINC001342629575   -0.0900
     28 C28       -13.5180   -1.8422   59.7590 C.ar    1  ZINC001342629575   -0.0900
     29 C29       -14.8162   -2.2287   60.0349 C.ar    1  ZINC001342629575   -0.1200
     30 C30       -15.3901   -3.2730   59.3342 C.ar    1  ZINC001342629575   -0.1200
     31 C31       -14.6660   -3.9304   58.3573 C.ar    1  ZINC001342629575   -0.1200
     32 C32       -13.3693   -3.5410   58.0784 C.ar    1  ZINC001342629575   -0.1100
     33 H33        -9.2035   -1.2212   61.7525 H       1  ZINC001342629575    0.1000
     34 H34        -9.0887   -0.9349   59.9076 H       1  ZINC001342629575    0.1000
     35 H35       -10.4275   -3.2368   61.3637 H       1  ZINC001342629575    0.1000
     36 H36        -9.4824   -3.1000   58.5381 H       1  ZINC001342629575    0.0900
     37 H37       -10.8547   -4.0635   59.1353 H       1  ZINC001342629575    0.0800
     38 H38       -12.7061   -1.4976   53.1438 H       1  ZINC001342629575    0.0600
     39 H39       -12.7899    0.2388   53.5734 H       1  ZINC001342629575    0.0800
     40 H40       -12.5460   -0.6648   50.9615 H       1  ZINC001342629575    0.0800
     41 H41       -11.9160    0.9177   51.5109 H       1  ZINC001342629575    0.0800
     42 H42       -10.3947   -1.4028   50.6205 H       1  ZINC001342629575    0.0800
     43 H43        -9.7648    0.1798   51.1699 H       1  ZINC001342629575    0.0800
     44 H44        -9.1438    1.0894   52.8809 H       1  ZINC001342629575    0.0900
     45 H45        -8.2547    0.7017   54.3920 H       1  ZINC001342629575    0.0800
     46 H46        -6.9396    1.8493   52.2794 H       1  ZINC001342629575    0.0800
     47 H47        -6.1390    0.5633   53.2458 H       1  ZINC001342629575    0.0800
     48 H48        -7.6674    0.2943   50.5992 H       1  ZINC001342629575    0.0600
     49 H49        -6.0762   -0.3986   51.0357 H       1  ZINC001342629575    0.0900
     50 H50       -10.8434    0.6363   57.5175 H       1  ZINC001342629575    0.1000
     51 H51       -11.0439    1.1103   55.8136 H       1  ZINC001342629575    0.1100
     52 H52       -13.4256    0.5955   55.8948 H       1  ZINC001342629575    0.0600
     53 H53       -13.2655   -0.0713   57.5374 H       1  ZINC001342629575    0.0600
     54 H54       -14.5112    3.3129   58.0594 H       1  ZINC001342629575    0.0900
     55 H55       -15.0138    2.2624   56.7132 H       1  ZINC001342629575    0.0400
     56 H56       -14.8651    1.5939   58.3561 H       1  ZINC001342629575    0.0400
     57 H57       -13.0696   -1.0263   60.3064 H       1  ZINC001342629575    0.1300
     58 H58       -15.3819   -1.7151   60.7981 H       1  ZINC001342629575    0.1200
     59 H59       -16.4040   -3.5756   59.5502 H       1  ZINC001342629575    0.1200
     60 H60       -15.1142   -4.7465   57.8101 H       1  ZINC001342629575    0.1200
     61 H61       -12.8035   -4.0546   57.3151 H       1  ZINC001342629575    0.1200
@<TRIPOS>BOND
     1     1     2    2
     2     1    33    1
     3     1    34    1
     4     2     3    1
     5     2    35    1
     6     3     4    1
     7     3    36    1
     8     3    37    1
     9     4     5    1
    10     4     6    1
    11     4    27    1
    12     6    22    1
    13     6     7    2
    14     7     8    1
    15     8     9    2
    16     9    10    1
    17     9    22    1
    18    10    14    1
    19    10    11    1
    20    11    12    1
    21    11    38    1
    22    11    39    1
    23    12    13    1
    24    12    40    1
    25    12    41    1
    26    13    14    1
    27    13    42    1
    28    13    43    1
    29    14    15    1
    30    14    16    1
    31    16    17    1
    32    16    21    1
    33    16    18    1
    34    18    19    1
    35    18    44    1
    36    18    45    1
    37    19    20    1
    38    19    46    1
    39    19    47    1
    40    20    21    1
    41    20    48    1
    42    20    49    1
    43    22    23    1
    44    23    24    1
    45    23    50    1
    46    23    51    1
    47    24    25    1
    48    24    52    1
    49    24    53    1
    50    25    26    1
    51    26    54    1
    52    26    55    1
    53    26    56    1
    54    27    32   ar
    55    27    28   ar
    56    28    29   ar
    57    28    57    1
    58    29    30   ar
    59    29    58    1
    60    30    31   ar
    61    30    59    1
    62    31    32   ar
    63    31    60    1
    64    32    61    1
@<TRIPOS>SUBSTRUCTURE
     1 ZINC001342629575        1 TEMP              0 ****  ****    0 ROOT


##########                                Name:    ZINC000981700465
##########                DOCK_Rotatable_Bonds:                   9
##########                         Heavy_Atoms:                  26
##########                    Molecular_Weight:             356.428
##########                DOCK_Rotatable_Bonds:                   9
##########                       Formal_Charge:               -0.01
##########                     HBond_Acceptors:                   8
##########                        HBond_Donors:                   3
##########                         Heavy_Atoms:                  26
##########                          Grid_Score:          -31.666037
##########                     Grid_vdw_energy:          -30.874615
##########                      Grid_es_energy:           -0.791422
##########           Internal_energy_repulsive:            9.597201

@<TRIPOS>MOLECULE
ZINC000981700465
 50 52 1 0 0
SMALL
USER_CHARGES


@<TRIPOS>ATOM
      1 C1        -12.8826   -3.3358   57.4116 C.3     1  ZINC000981700465   -0.1500
      2 C2        -11.8903   -2.5504   58.2716 C.3     1  ZINC000981700465   -0.1100
      3 C3        -10.4618   -2.9423   57.8887 C.3     1  ZINC000981700465   -0.0500
      4 C4         -9.4846   -2.1727   58.7393 C.2     1  ZINC000981700465    0.1400
      5 N5         -8.8282   -2.6392   59.7656 N.2     1  ZINC000981700465   -0.2900
      6 N6         -8.0229   -1.6218   60.2892 N.pl3   1  ZINC000981700465   -0.4600
      7 C7         -8.2040   -0.5138   59.5529 C.2     1  ZINC000981700465    0.1000
      8 C8         -9.1138   -0.8209   58.5612 C.2     1  ZINC000981700465   -0.2900
      9 C9         -9.6132    0.0933   57.5179 C.2     1  ZINC000981700465    0.5900
     10 O10        -9.8197    1.2622   57.7816 O.2     1  ZINC000981700465   -0.5300
     11 N11        -9.8408   -0.3668   56.2716 N.am    1  ZINC000981700465   -0.7300
     12 C12       -10.3387    0.5411   55.2353 C.3     1  ZINC000981700465    0.1300
     13 C13       -10.1463   -0.1006   53.8597 C.3     1  ZINC000981700465   -0.1100
     14 H14       -10.7717   -0.9880   53.7630 H       1  ZINC000981700465    0.0900
     15 C15       -10.4704    0.9162   52.7371 C.3     1  ZINC000981700465   -0.1200
     16 C16        -9.6752    0.3584   51.5307 C.3     1  ZINC000981700465   -0.1300
     17 C17        -8.3627   -0.1633   52.1513 C.3     1  ZINC000981700465    0.1400
     18 H18        -8.0484   -1.0769   51.6469 H       1  ZINC000981700465    0.1000
     19 N19        -7.3160    0.8558   52.0414 N.am    1  ZINC000981700465   -0.7100
     20 C20        -6.0949    0.5204   51.5798 C.2     1  ZINC000981700465    0.5600
     21 O21        -5.8618   -0.6275   51.2563 O.2     1  ZINC000981700465   -0.5200
     22 C22        -5.0369    1.5511   51.4670 C.ar    1  ZINC000981700465   -0.1400
     23 C23        -4.7948    2.4577   52.5070 C.ar    1  ZINC000981700465   -0.0600
     24 C24        -3.7882    3.3928   52.3283 C.ar    1  ZINC000981700465    0.0400
     25 N25        -3.0949    3.4082   51.2065 N.ar    1  ZINC000981700465   -0.2200
     26 N26        -3.3115    2.5809   50.2504 N.ar    1  ZINC000981700465   -0.2400
     27 C27        -4.2420    1.6488   50.3215 C.ar    1  ZINC000981700465    0.0700
     28 C28        -8.6627   -0.4583   53.6336 C.3     1  ZINC000981700465   -0.1200
     29 H29       -12.7418   -4.4038   57.5782 H       1  ZINC000981700465    0.0600
     30 H30       -13.9002   -3.0565   57.6844 H       1  ZINC000981700465    0.0600
     31 H31       -12.7125   -3.1066   56.3596 H       1  ZINC000981700465    0.0500
     32 H32       -12.0310   -1.4824   58.1049 H       1  ZINC000981700465    0.0600
     33 H33       -12.0603   -2.7795   59.3236 H       1  ZINC000981700465    0.0600
     34 H34       -10.3222   -4.0110   58.0515 H       1  ZINC000981700465    0.1000
     35 H35       -10.2905   -2.7095   56.8377 H       1  ZINC000981700465    0.0800
     36 H36        -7.4332   -1.7032   61.0550 H       1  ZINC000981700465    0.4500
     37 H37        -7.7229    0.4410   59.7056 H       1  ZINC000981700465    0.1800
     38 H38        -9.6750   -1.2989   56.0609 H       1  ZINC000981700465    0.4000
     39 H39       -11.3984    0.7352   55.4007 H       1  ZINC000981700465    0.0700
     40 H40        -9.7864    1.4799   55.2787 H       1  ZINC000981700465    0.0700
     41 H41       -11.5392    0.9277   52.5233 H       1  ZINC000981700465    0.0700
     42 H42       -10.1181    1.9123   53.0047 H       1  ZINC000981700465    0.0700
     43 H43       -10.2229   -0.4559   51.0564 H       1  ZINC000981700465    0.0800
     44 H44        -9.4685    1.1504   50.8110 H       1  ZINC000981700465    0.0700
     45 H45        -7.5016    1.7718   52.3007 H       1  ZINC000981700465    0.4000
     46 H46        -5.3741    2.4290   53.4180 H       1  ZINC000981700465    0.1700
     47 H47        -3.5716    4.1090   53.1072 H       1  ZINC000981700465    0.1800
     48 H48        -4.3945    0.9699   49.4956 H       1  ZINC000981700465    0.1700
     49 H49        -8.0302    0.1580   54.2724 H       1  ZINC000981700465    0.0800
     50 H50        -8.4930   -1.5138   53.8460 H       1  ZINC000981700465    0.0800
@<TRIPOS>BOND
     1     1     2    1
     2     1    29    1
     3     1    30    1
     4     1    31    1
     5     2     3    1
     6     2    32    1
     7     2    33    1
     8     3     4    1
     9     3    34    1
    10     3    35    1
    11     4     8    1
    12     4     5    2
    13     5     6    1
    14     6     7    1
    15     6    36    1
    16     7     8    2
    17     7    37    1
    18     8     9    1
    19     9    10    2
    20     9    11   am
    21    11    12    1
    22    11    38    1
    23    12    13    1
    24    12    39    1
    25    12    40    1
    26    13    14    1
    27    13    28    1
    28    13    15    1
    29    15    16    1
    30    15    41    1
    31    15    42    1
    32    16    17    1
    33    16    43    1
    34    16    44    1
    35    17    18    1
    36    17    19    1
    37    17    28    1
    38    19    20   am
    39    19    45    1
    40    20    21    2
    41    20    22    1
    42    22    27   ar
    43    22    23   ar
    44    23    24   ar
    45    23    46    1
    46    24    25   ar
    47    24    47    1
    48    25    26   ar
    49    26    27   ar
    50    27    48    1
    51    28    49    1
    52    28    50    1
@<TRIPOS>SUBSTRUCTURE
     1 ZINC000981700465        1 TEMP              0 ****  ****    0 ROOT


##########                                Name:    ZINC000000992968
##########                DOCK_Rotatable_Bonds:                   8
##########                         Heavy_Atoms:                  27
##########                    Molecular_Weight:             384.772
##########                DOCK_Rotatable_Bonds:                   8
##########                       Formal_Charge:           0.0199999
##########                     HBond_Acceptors:                   7
##########                        HBond_Donors:                   0
##########                         Heavy_Atoms:                  27
##########                          Grid_Score:          -31.665609
##########                     Grid_vdw_energy:          -30.976847
##########                      Grid_es_energy:           -0.688763
##########           Internal_energy_repulsive:            6.499358

@<TRIPOS>MOLECULE
ZINC000000992968
 40 42 1 0 0
SMALL
USER_CHARGES


@<TRIPOS>ATOM
      1 O1         -9.5757   -1.9469   52.8827 O.2     1  ZINC000000992968   -0.4600
      2 C2         -9.3455   -0.7718   53.0957 C.2     1  ZINC000000992968    0.5600
      3 O3         -8.3140   -0.4197   53.8914 O.3     1  ZINC000000992968   -0.2900
      4 C4         -7.4080    0.4660   53.4053 C.ar    1  ZINC000000992968    0.1200
      5 C5         -6.8222    0.2468   52.1633 C.ar    1  ZINC000000992968   -0.1300
      6 C6         -5.9026    1.1416   51.6661 C.ar    1  ZINC000000992968   -0.0400
      7 C7         -5.5573    2.2746   52.4128 C.ar    1  ZINC000000992968   -0.1600
      8 C8         -4.5766    3.2334   51.8866 C.2     1  ZINC000000992968    0.4000
      9 O9         -4.7141    4.4196   52.0988 O.2     1  ZINC000000992968   -0.4200
     10 C10        -3.3996    2.7431   51.0832 C.3     1  ZINC000000992968    0.0200
     11 O11        -3.8037    2.5484   49.7022 O.3     1  ZINC000000992968   -0.3300
     12 C12        -2.8317    2.5821   48.7700 C.2     1  ZINC000000992968    0.5100
     13 O13        -2.6638    3.5838   48.1035 O.2     1  ZINC000000992968   -0.5000
     14 C14        -1.9704    1.4015   48.5584 C.ar    1  ZINC000000992968   -0.1300
     15 C15        -0.8273    1.2183   49.3397 C.ar    1  ZINC000000992968   -0.0500
     16 C16        -0.0274    0.1136   49.1375 C.ar    1  ZINC000000992968   -0.1200
     17 C17        -0.3553   -0.8133   48.1617 C.ar    1  ZINC000000992968    0.0000
     18 Cl18        0.6572   -2.2013   47.9129 Cl      1  ZINC000000992968   -0.0500
     19 C19        -1.4880   -0.6374   47.3839 C.ar    1  ZINC000000992968   -0.1200
     20 C20        -2.2988    0.4604   47.5800 C.ar    1  ZINC000000992968   -0.0400
     21 C21        -6.1505    2.4909   53.6626 C.ar    1  ZINC000000992968   -0.0600
     22 C22        -7.0729    1.5926   54.1484 C.ar    1  ZINC000000992968   -0.1200
     23 C23       -10.1841    0.2612   52.4839 C.2     1  ZINC000000992968   -0.0700
     24 C24       -11.2145    0.0470   51.6121 C.2     1  ZINC000000992968   -0.0900
     25 C25       -11.7335    1.3084   51.2836 C.2     1  ZINC000000992968   -0.2300
     26 C26       -11.0073    2.2262   51.9600 C.2     1  ZINC000000992968    0.0200
     27 O27       -10.0787    1.5911   52.6864 O.3     1  ZINC000000992968   -0.1500
     28 H28        -7.0891   -0.6275   51.5882 H       1  ZINC000000992968    0.1400
     29 H29        -5.4476    0.9701   50.7017 H       1  ZINC000000992968    0.1500
     30 H30        -2.5978    3.4800   51.1267 H       1  ZINC000000992968    0.1100
     31 H31        -3.0471    1.7976   51.4954 H       1  ZINC000000992968    0.1100
     32 H32        -0.5704    1.9407   50.1003 H       1  ZINC000000992968    0.1500
     33 H33         0.8567   -0.0292   49.7410 H       1  ZINC000000992968    0.1500
     34 H34        -1.7385   -1.3637   46.6249 H       1  ZINC000000992968    0.1500
     35 H35        -3.1817    0.5962   46.9731 H       1  ZINC000000992968    0.1500
     36 H36        -5.8873    3.3632   54.2426 H       1  ZINC000000992968    0.1400
     37 H37        -7.5312    1.7587   55.1121 H       1  ZINC000000992968    0.1400
     38 H38       -11.5619   -0.9081   51.2467 H       1  ZINC000000992968    0.1700
     39 H39       -12.5583    1.5086   50.6158 H       1  ZINC000000992968    0.1700
     40 H40       -11.1544    3.2955   51.9237 H       1  ZINC000000992968    0.2200
@<TRIPOS>BOND
     1     1     2    2
     2     2     3    1
     3     2    23    1
     4     3     4    1
     5     4    22   ar
     6     4     5   ar
     7     5     6   ar
     8     5    28    1
     9     6     7   ar
    10     6    29    1
    11     7     8    1
    12     7    21   ar
    13     8     9    2
    14     8    10    1
    15    10    11    1
    16    10    30    1
    17    10    31    1
    18    11    12    1
    19    12    13    2
    20    12    14    1
    21    14    20   ar
    22    14    15   ar
    23    15    16   ar
    24    15    32    1
    25    16    17   ar
    26    16    33    1
    27    17    18    1
    28    17    19   ar
    29    19    20   ar
    30    19    34    1
    31    20    35    1
    32    21    22   ar
    33    21    36    1
    34    22    37    1
    35    23    27    1
    36    23    24    2
    37    24    25    1
    38    24    38    1
    39    25    26    2
    40    25    39    1
    41    26    27    1
    42    26    40    1
@<TRIPOS>SUBSTRUCTURE
     1 ZINC000000992968        1 TEMP              0 ****  ****    0 ROOT


##########                                Name:    ZINC000762187039
##########                DOCK_Rotatable_Bonds:                   9
##########                         Heavy_Atoms:                  25
##########                    Molecular_Weight:             354.473
##########                DOCK_Rotatable_Bonds:                   9
##########                       Formal_Charge:        -1.78814e-07
##########                     HBond_Acceptors:                   5
##########                        HBond_Donors:                   1
##########                         Heavy_Atoms:                  25
##########                          Grid_Score:          -31.662651
##########                     Grid_vdw_energy:          -31.033522
##########                      Grid_es_energy:           -0.629129
##########           Internal_energy_repulsive:            7.586385

@<TRIPOS>MOLECULE
ZINC000762187039
 47 49 1 0 0
SMALL
USER_CHARGES


@<TRIPOS>ATOM
      1 C1          1.1792    1.0253   50.4433 C.3     1  ZINC000762187039   -0.0800
      2 C2         -0.0040    0.7253   49.5594 C.2     1  ZINC000762187039    0.0500
      3 N3         -1.0043    1.5181   49.3703 N.2     1  ZINC000762187039   -0.4700
      4 C4         -1.9581    1.0998   48.5628 C.2     1  ZINC000762187039    0.0700
      5 C5         -3.1820    1.9223   48.2521 C.3     1  ZINC000762187039   -0.0300
      6 C6         -3.4928    2.8413   49.4351 C.3     1  ZINC000762187039   -0.1300
      7 C7         -4.0690    2.0278   50.5654 C.2     1  ZINC000762187039    0.5200
      8 O8         -3.7050    2.2296   51.7045 O.2     1  ZINC000762187039   -0.5400
      9 N9         -4.9885    1.0761   50.3102 N.am    1  ZINC000762187039   -0.7300
     10 C10        -5.5474    0.2843   51.4087 C.3     1  ZINC000762187039    0.1200
     11 C11        -6.9204   -0.2547   51.0019 C.3     1  ZINC000762187039   -0.1300
     12 C12        -7.6812   -0.7064   52.2501 C.3     1  ZINC000762187039    0.0600
     13 O13        -8.1079    0.4401   52.9888 O.3     1  ZINC000762187039   -0.3100
     14 C14        -8.1575    0.3190   54.3413 C.ar    1  ZINC000762187039    0.1300
     15 C15        -7.3273    1.1147   55.1363 C.ar    1  ZINC000762187039   -0.1900
     16 C16        -7.3542    1.0164   56.4927 C.ar    1  ZINC000762187039   -0.0600
     17 C17        -8.2279    0.1034   57.1081 C.ar    1  ZINC000762187039   -0.0800
     18 C18        -8.2818   -0.0237   58.5066 C.ar    1  ZINC000762187039   -0.0900
     19 C19        -9.1401   -0.9177   59.0691 C.ar    1  ZINC000762187039   -0.1300
     20 C20        -9.9691   -1.7119   58.2789 C.ar    1  ZINC000762187039   -0.1000
     21 C21        -9.9445   -1.6167   56.9216 C.ar    1  ZINC000762187039   -0.1200
     22 C22        -9.0711   -0.7043   56.3041 C.ar    1  ZINC000762187039   -0.0100
     23 C23        -9.0221   -0.5748   54.9068 C.ar    1  ZINC000762187039   -0.1500
     24 C24        -1.7508   -0.1133   48.0418 C.2     1  ZINC000762187039   -0.2600
     25 S25        -0.2118   -0.7116   48.6566 S.3     1  ZINC000762187039    0.1200
     26 H26         1.8752    0.1869   50.4156 H       1  ZINC000762187039    0.0800
     27 H27         1.6802    1.9253   50.0867 H       1  ZINC000762187039    0.0900
     28 H28         0.8380    1.1806   51.4668 H       1  ZINC000762187039    0.0900
     29 H29        -2.9987    2.5248   47.3624 H       1  ZINC000762187039    0.0900
     30 H30        -4.0293    1.2600   48.0741 H       1  ZINC000762187039    0.0900
     31 H31        -2.5760    3.3277   49.7681 H       1  ZINC000762187039    0.0900
     32 H32        -4.2146    3.5980   49.1275 H       1  ZINC000762187039    0.1000
     33 H33        -5.2805    0.9157   49.3992 H       1  ZINC000762187039    0.4000
     34 H34        -4.8812   -0.5494   51.6311 H       1  ZINC000762187039    0.0700
     35 H35        -5.6512    0.9124   52.2934 H       1  ZINC000762187039    0.0700
     36 H36        -7.4837    0.5302   50.4972 H       1  ZINC000762187039    0.0800
     37 H37        -6.7931   -1.1016   50.3277 H       1  ZINC000762187039    0.0800
     38 H38        -8.5514   -1.2918   51.9532 H       1  ZINC000762187039    0.0700
     39 H39        -7.0276   -1.3173   52.8728 H       1  ZINC000762187039    0.0700
     40 H40        -6.6547    1.8173   54.6668 H       1  ZINC000762187039    0.1300
     41 H41        -6.7066    1.6370   57.0942 H       1  ZINC000762187039    0.1300
     42 H42        -7.6453    0.5848   59.1319 H       1  ZINC000762187039    0.1300
     43 H43        -9.1791   -1.0134   60.1442 H       1  ZINC000762187039    0.1200
     44 H44       -10.6408   -2.4138   58.7507 H       1  ZINC000762187039    0.1200
     45 H45       -10.5926   -2.2385   56.3219 H       1  ZINC000762187039    0.1300
     46 H46        -9.6618   -1.1810   54.2825 H       1  ZINC000762187039    0.1300
     47 H47        -2.4086   -0.6333   47.3613 H       1  ZINC000762187039    0.1800
@<TRIPOS>BOND
     1     1     2    1
     2     1    26    1
     3     1    27    1
     4     1    28    1
     5     2    25    1
     6     2     3    2
     7     3     4    1
     8     4     5    1
     9     4    24    2
    10     5     6    1
    11     5    29    1
    12     5    30    1
    13     6     7    1
    14     6    31    1
    15     6    32    1
    16     7     8    2
    17     7     9   am
    18     9    10    1
    19     9    33    1
    20    10    11    1
    21    10    34    1
    22    10    35    1
    23    11    12    1
    24    11    36    1
    25    11    37    1
    26    12    13    1
    27    12    38    1
    28    12    39    1
    29    13    14    1
    30    14    23   ar
    31    14    15   ar
    32    15    16   ar
    33    15    40    1
    34    16    17   ar
    35    16    41    1
    36    17    22   ar
    37    17    18   ar
    38    18    19   ar
    39    18    42    1
    40    19    20   ar
    41    19    43    1
    42    20    21   ar
    43    20    44    1
    44    21    22   ar
    45    21    45    1
    46    22    23   ar
    47    23    46    1
    48    24    25    1
    49    24    47    1
@<TRIPOS>SUBSTRUCTURE
     1 ZINC000762187039        1 TEMP              0 ****  ****    0 ROOT


##########                                Name:    ZINC000481838178
##########                DOCK_Rotatable_Bonds:                   6
##########                         Heavy_Atoms:                  29
##########                    Molecular_Weight:             408.524
##########                DOCK_Rotatable_Bonds:                   6
##########                       Formal_Charge:         -0.00999962
##########                     HBond_Acceptors:                   7
##########                        HBond_Donors:                   0
##########                         Heavy_Atoms:                  29
##########                          Grid_Score:          -31.647165
##########                     Grid_vdw_energy:          -32.260448
##########                      Grid_es_energy:            0.613284
##########           Internal_energy_repulsive:            9.934152

@<TRIPOS>MOLECULE
ZINC000481838178
 53 57 1 0 0
SMALL
USER_CHARGES


@<TRIPOS>ATOM
      1 O1         -4.1374    4.4759   50.0078 O.2     1  ZINC000481838178   -0.5200
      2 C2         -3.2648    3.7091   50.3568 C.2     1  ZINC000481838178    0.5500
      3 C3         -2.9062    3.5894   51.8156 C.3     1  ZINC000481838178   -0.1500
      4 S4         -4.3612    3.9583   52.8269 S.3     1  ZINC000481838178    0.1000
      5 C5         -5.3231    2.5149   52.5171 C.2     1  ZINC000481838178    0.1600
      6 N6         -5.2557    1.7471   51.4528 N.2     1  ZINC000481838178   -0.2800
      7 N7         -6.0961    0.7799   51.5494 N.2     1  ZINC000481838178   -0.2500
      8 C8         -6.7554    0.8681   52.6841 C.2     1  ZINC000481838178    0.2700
      9 C9         -7.8010   -0.0491   53.1623 C.2     1  ZINC000481838178    0.0300
     10 C10        -8.7330   -0.6735   52.3883 C.2     1  ZINC000481838178   -0.1300
     11 C11        -9.5255   -1.4500   53.2555 C.2     1  ZINC000481838178   -0.2100
     12 C12        -9.0460   -1.2655   54.5017 C.2     1  ZINC000481838178   -0.0100
     13 O13        -8.0009   -0.4236   54.4414 O.3     1  ZINC000481838178   -0.1700
     14 N14        -6.2756    1.9811   53.3432 N.pl3   1  ZINC000481838178   -0.4100
     15 C15        -6.6840    2.4682   54.5924 C.ar    1  ZINC000481838178    0.1000
     16 C16        -5.7434    2.7204   55.5819 C.ar    1  ZINC000481838178   -0.0800
     17 C17        -6.1489    3.2003   56.8121 C.ar    1  ZINC000481838178   -0.1100
     18 C18        -7.4901    3.4296   57.0584 C.ar    1  ZINC000481838178   -0.1000
     19 C19        -8.4293    3.1794   56.0747 C.ar    1  ZINC000481838178   -0.1100
     20 C20        -8.0293    2.7048   54.8408 C.ar    1  ZINC000481838178   -0.0900
     21 N21        -2.6199    2.9600   49.4406 N.am    1  ZINC000481838178   -0.6200
     22 C22        -1.5429    1.9737   49.7230 C.3     1  ZINC000481838178    0.1000
     23 C23        -1.6400    1.0027   48.5403 C.3     1  ZINC000481838178   -0.1100
     24 H24        -2.5060    0.3487   48.6417 H       1  ZINC000481838178    0.0900
     25 C25        -0.3903    0.2023   48.2256 C.3     1  ZINC000481838178   -0.1100
     26 C26        -0.6794   -0.6032   46.9480 C.3     1  ZINC000481838178   -0.1200
     27 C27        -1.0693    0.3048   45.7861 C.3     1  ZINC000481838178   -0.1200
     28 C28        -2.2428    1.2273   46.1573 C.3     1  ZINC000481838178   -0.1000
     29 C29        -1.8360    2.0212   47.3771 C.3     1  ZINC000481838178   -0.1100
     30 H30        -0.8927    2.5345   47.1903 H       1  ZINC000481838178    0.0900
     31 C31        -2.8664    2.9729   47.9772 C.3     1  ZINC000481838178    0.1200
     32 H32        -2.5664    2.5749   52.0242 H       1  ZINC000481838178    0.1300
     33 H33        -2.1102    4.2952   52.0532 H       1  ZINC000481838178    0.1300
     34 H34        -8.8429   -0.5887   51.3172 H       1  ZINC000481838178    0.1600
     35 H35       -10.3602   -2.0752   52.9751 H       1  ZINC000481838178    0.1600
     36 H36        -9.4349   -1.7226   55.3997 H       1  ZINC000481838178    0.2100
     37 H37        -4.6958    2.5412   55.3903 H       1  ZINC000481838178    0.1300
     38 H38        -5.4177    3.3964   57.5823 H       1  ZINC000481838178    0.1400
     39 H39        -7.8048    3.8046   58.0210 H       1  ZINC000481838178    0.1300
     40 H40        -9.4761    3.3590   56.2702 H       1  ZINC000481838178    0.1400
     41 H41        -8.7633    2.5096   54.0729 H       1  ZINC000481838178    0.1300
     42 H42        -0.5686    2.4621   49.7411 H       1  ZINC000481838178    0.0800
     43 H43        -1.7324    1.4554   50.6630 H       1  ZINC000481838178    0.0800
     44 H44         0.4501    0.8759   48.0580 H       1  ZINC000481838178    0.0700
     45 H45        -0.1659   -0.4755   49.0494 H       1  ZINC000481838178    0.0700
     46 H46         0.2118   -1.1682   46.6744 H       1  ZINC000481838178    0.0600
     47 H47        -1.4944   -1.3001   47.1438 H       1  ZINC000481838178    0.0600
     48 H48        -0.2104    0.9158   45.5083 H       1  ZINC000481838178    0.0600
     49 H49        -1.3566   -0.3112   44.9340 H       1  ZINC000481838178    0.0700
     50 H50        -2.4603    1.9030   45.3300 H       1  ZINC000481838178    0.0700
     51 H51        -3.1242    0.6308   46.3927 H       1  ZINC000481838178    0.0700
     52 H52        -3.8750    2.6272   47.7506 H       1  ZINC000481838178    0.0700
     53 H53        -2.7177    3.9811   47.5906 H       1  ZINC000481838178    0.0700
@<TRIPOS>BOND
     1     1     2    2
     2     2     3    1
     3     2    21   am
     4     3     4    1
     5     3    32    1
     6     3    33    1
     7     4     5    1
     8     5    14    1
     9     5     6    2
    10     6     7    1
    11     7     8    2
    12     8     9    1
    13     8    14    1
    14     9    13    1
    15     9    10    2
    16    10    11    1
    17    10    34    1
    18    11    12    2
    19    11    35    1
    20    12    13    1
    21    12    36    1
    22    14    15    1
    23    15    20   ar
    24    15    16   ar
    25    16    17   ar
    26    16    37    1
    27    17    18   ar
    28    17    38    1
    29    18    19   ar
    30    18    39    1
    31    19    20   ar
    32    19    40    1
    33    20    41    1
    34    21    31    1
    35    21    22    1
    36    22    23    1
    37    22    42    1
    38    22    43    1
    39    23    24    1
    40    23    29    1
    41    23    25    1
    42    25    26    1
    43    25    44    1
    44    25    45    1
    45    26    27    1
    46    26    46    1
    47    26    47    1
    48    27    28    1
    49    27    48    1
    50    27    49    1
    51    28    29    1
    52    28    50    1
    53    28    51    1
    54    29    30    1
    55    29    31    1
    56    31    52    1
    57    31    53    1
@<TRIPOS>SUBSTRUCTURE
     1 ZINC000481838178        1 TEMP              0 ****  ****    0 ROOT


##########                                Name:    ZINC001039825450
##########                DOCK_Rotatable_Bonds:                   8
##########                         Heavy_Atoms:                  24
##########                    Molecular_Weight:             337.339
##########                DOCK_Rotatable_Bonds:                   8
##########                       Formal_Charge:           0.0100001
##########                     HBond_Acceptors:                  11
##########                        HBond_Donors:                   4
##########                         Heavy_Atoms:                  24
##########                          Grid_Score:          -31.644657
##########                     Grid_vdw_energy:          -30.571907
##########                      Grid_es_energy:           -1.072750
##########           Internal_energy_repulsive:            8.192367

@<TRIPOS>MOLECULE
ZINC001039825450
 43 45 1 0 0
SMALL
USER_CHARGES


@<TRIPOS>ATOM
      1 O1         -9.4617   -2.8353   53.8053 O.2     1  ZINC001039825450   -0.5100
      2 C2         -9.9621   -1.7393   53.9450 C.2     1  ZINC001039825450    0.5000
      3 C3         -9.8121   -0.6993   52.8647 C.3     1  ZINC001039825450    0.1300
      4 N4         -8.4007   -0.5856   52.4890 N.pl3   1  ZINC001039825450   -0.1500
      5 N5         -7.7540    0.5229   52.4053 N.2     1  ZINC001039825450   -0.2800
      6 C6         -6.5171    0.2633   52.0460 C.2     1  ZINC001039825450   -0.0200
      7 C7         -6.4418   -1.1247   51.9092 C.2     1  ZINC001039825450   -0.0200
      8 N8         -7.6381   -1.5809   52.2033 N.2     1  ZINC001039825450   -0.2800
      9 N9        -10.6571   -1.4534   55.0638 N.am    1  ZINC001039825450   -0.7300
     10 C10       -10.8029   -2.4644   56.1139 C.3     1  ZINC001039825450    0.1000
     11 C11       -11.1311   -1.7775   57.4410 C.3     1  ZINC001039825450    0.1100
     12 O12       -12.2118   -0.8568   57.2780 O.3     1  ZINC001039825450   -0.5400
     13 C13       -11.4593   -2.8269   58.5358 C.3     1  ZINC001039825450   -0.1600
     14 C14       -11.0829   -2.0576   59.8267 C.3     1  ZINC001039825450    0.1000
     15 N15        -9.8885   -1.2732   59.4639 N.am    1  ZINC001039825450   -0.6100
     16 C16        -8.9531   -0.8236   60.3237 C.2     1  ZINC001039825450    0.5200
     17 O17        -8.0084   -0.1840   59.9120 O.2     1  ZINC001039825450   -0.5100
     18 C18        -9.0809   -1.1157   61.7966 C.3     1  ZINC001039825450    0.1100
     19 H19        -9.4555   -2.1271   61.9540 H       1  ZINC001039825450    0.1200
     20 C20       -10.0048   -0.0851   62.4742 C.3     1  ZINC001039825450    0.1100
     21 N21        -9.1352    0.5723   63.4612 N.am    1  ZINC001039825450   -0.7400
     22 C22        -7.9092    0.0373   63.3931 C.2     1  ZINC001039825450    0.7100
     23 O23        -6.9888    0.3963   64.1018 O.2     1  ZINC001039825450   -0.5800
     24 N24        -7.7881   -0.9331   62.4731 N.am    1  ZINC001039825450   -0.7200
     25 C25        -9.8864   -1.0633   58.0087 C.3     1  ZINC001039825450    0.1200
     26 H26       -10.3974   -0.9934   51.9934 H       1  ZINC001039825450    0.1400
     27 H27       -10.1683    0.2623   53.2341 H       1  ZINC001039825450    0.1400
     28 H28        -5.7220    0.9769   51.8884 H       1  ZINC001039825450    0.2000
     29 H29        -5.5761   -1.7044   51.6243 H       1  ZINC001039825450    0.2000
     30 H30       -11.0606   -0.5781   55.1737 H       1  ZINC001039825450    0.4000
     31 H31       -11.6091   -3.1488   55.8499 H       1  ZINC001039825450    0.0900
     32 H32        -9.8714   -3.0216   56.2138 H       1  ZINC001039825450    0.0900
     33 H33       -13.0039   -1.2461   56.8826 H       1  ZINC001039825450    0.3800
     34 H34       -12.5190   -3.0816   58.5277 H       1  ZINC001039825450    0.0900
     35 H35       -10.8438   -3.7188   58.4190 H       1  ZINC001039825450    0.0900
     36 H36       -11.8957   -1.3953   60.1242 H       1  ZINC001039825450    0.0800
     37 H37       -10.8483   -2.7562   60.6298 H       1  ZINC001039825450    0.0800
     38 H38       -10.3711    0.6378   61.7453 H       1  ZINC001039825450    0.0900
     39 H39       -10.8368   -0.5850   62.9702 H       1  ZINC001039825450    0.1000
     40 H40        -9.4064    1.2809   64.0655 H       1  ZINC001039825450    0.4400
     41 H41        -6.9771   -1.4310   62.2848 H       1  ZINC001039825450    0.4400
     42 H42        -8.9831   -1.4910   57.5738 H       1  ZINC001039825450    0.0900
     43 H43        -9.9378    0.0028   57.7879 H       1  ZINC001039825450    0.0900
@<TRIPOS>BOND
     1     1     2    2
     2     2     3    1
     3     2     9   am
     4     3     4    1
     5     3    26    1
     6     3    27    1
     7     4     8    1
     8     4     5    1
     9     5     6    2
    10     6     7    1
    11     6    28    1
    12     7     8    2
    13     7    29    1
    14     9    10    1
    15     9    30    1
    16    10    11    1
    17    10    31    1
    18    10    32    1
    19    11    25    1
    20    11    12    1
    21    11    13    1
    22    12    33    1
    23    13    14    1
    24    13    34    1
    25    13    35    1
    26    14    15    1
    27    14    36    1
    28    14    37    1
    29    15    16   am
    30    15    25    1
    31    16    17    2
    32    16    18    1
    33    18    19    1
    34    18    24    1
    35    18    20    1
    36    20    21    1
    37    20    38    1
    38    20    39    1
    39    21    22   am
    40    21    40    1
    41    22    23    2
    42    22    24   am
    43    24    41    1
    44    25    42    1
    45    25    43    1
@<TRIPOS>SUBSTRUCTURE
     1 ZINC001039825450        1 TEMP              0 ****  ****    0 ROOT


##########                                Name:    ZINC000440379747
##########                DOCK_Rotatable_Bonds:                   8
##########                         Heavy_Atoms:                  27
##########                    Molecular_Weight:             394.452
##########                DOCK_Rotatable_Bonds:                   8
##########                       Formal_Charge:           0.0199995
##########                     HBond_Acceptors:                  10
##########                        HBond_Donors:                   3
##########                         Heavy_Atoms:                  27
##########                          Grid_Score:          -31.643368
##########                     Grid_vdw_energy:          -28.151911
##########                      Grid_es_energy:           -3.491457
##########           Internal_energy_repulsive:           20.981268

@<TRIPOS>MOLECULE
ZINC000440379747
 49 51 1 0 0
SMALL
USER_CHARGES


@<TRIPOS>ATOM
      1 C1         -9.4145   -0.0902   52.7206 C.3     1  ZINC000440379747   -0.1800
      2 C2         -9.5118   -0.4696   54.1758 C.2     1  ZINC000440379747    0.5200
      3 O3        -10.3155   -1.3053   54.5323 O.2     1  ZINC000440379747   -0.5200
      4 N4         -8.7059    0.1198   55.0813 N.am    1  ZINC000440379747   -0.5500
      5 C5         -7.6997    1.1392   54.7726 C.3     1  ZINC000440379747    0.1100
      6 C6         -7.0533    1.4901   56.1225 C.3     1  ZINC000440379747   -0.0900
      7 C7         -7.7669    0.6129   57.1266 C.ar    1  ZINC000440379747   -0.1100
      8 C8         -7.6117    0.4925   58.4931 C.ar    1  ZINC000440379747   -0.0700
      9 C9         -8.4009   -0.3998   59.2078 C.ar    1  ZINC000440379747    0.1200
     10 N10        -8.2454   -0.5227   60.5919 N.am    1  ZINC000440379747   -0.6400
     11 C11        -8.9839    0.2388   61.4233 C.2     1  ZINC000440379747    0.5100
     12 O12        -9.7840    1.0313   60.9704 O.2     1  ZINC000440379747   -0.4900
     13 C13        -8.8178    0.1075   62.9015 C.2     1  ZINC000440379747    0.5200
     14 O14        -8.8811   -0.9858   63.4246 O.2     1  ZINC000440379747   -0.5100
     15 N15        -8.5976    1.2032   63.6548 N.am    1  ZINC000440379747   -0.5800
     16 C16        -8.4981    2.5856   63.1522 C.3     1  ZINC000440379747    0.1000
     17 C17        -8.8671    3.4759   64.3650 C.3     1  ZINC000440379747   -0.1300
     18 C18        -8.2224    2.6893   65.5367 C.3     1  ZINC000440379747   -0.1600
     19 C19        -8.4231    1.2185   65.1146 C.3     1  ZINC000440379747    0.1500
     20 H20        -9.3080    0.8102   65.6029 H       1  ZINC000440379747    0.1000
     21 C21        -7.1915    0.3949   65.4963 C.3     1  ZINC000440379747   -0.6500
     22 S22        -7.3391   -0.1499   67.2203 S.o2    1  ZINC000440379747    2.6200
     23 N23        -7.5801    1.2473   68.0759 N.am    1  ZINC000440379747   -1.2500
     24 O24        -8.5388   -0.8877   67.4091 O.2     1  ZINC000440379747   -0.9500
     25 O25        -6.0938   -0.6418   67.6961 O.2     1  ZINC000440379747   -0.9500
     26 C26        -9.3458   -1.1692   58.5405 C.ar    1  ZINC000440379747   -0.1000
     27 C27        -9.4991   -1.0473   57.1767 C.ar    1  ZINC000440379747   -0.1400
     28 C28        -8.7119   -0.1478   56.4551 C.ar    1  ZINC000440379747    0.1400
     29 H29       -10.1389   -0.6669   52.1456 H       1  ZINC000440379747    0.1000
     30 H30        -9.6247    0.9733   52.6076 H       1  ZINC000440379747    0.1000
     31 H31        -8.4094   -0.3026   52.3562 H       1  ZINC000440379747    0.1000
     32 H32        -6.9522    0.7375   54.0885 H       1  ZINC000440379747    0.0900
     33 H33        -8.1742    2.0202   54.3403 H       1  ZINC000440379747    0.0900
     34 H34        -5.9881    1.2592   56.1053 H       1  ZINC000440379747    0.0900
     35 H35        -7.2112    2.5427   56.3573 H       1  ZINC000440379747    0.1000
     36 H36        -6.8755    1.0926   59.0071 H       1  ZINC000440379747    0.1400
     37 H37        -7.6059   -1.1560   60.9538 H       1  ZINC000440379747    0.4200
     38 H38        -7.4810    2.7969   62.8220 H       1  ZINC000440379747    0.0800
     39 H39        -9.2033    2.7443   62.3364 H       1  ZINC000440379747    0.1000
     40 H40        -8.4251    4.4678   64.2704 H       1  ZINC000440379747    0.1000
     41 H41        -9.9483    3.5418   64.4867 H       1  ZINC000440379747    0.0800
     42 H42        -7.1626    2.9278   65.6244 H       1  ZINC000440379747    0.1000
     43 H43        -8.7437    2.8942   66.4718 H       1  ZINC000440379747    0.1000
     44 H44        -7.1207   -0.4761   64.8448 H       1  ZINC000440379747    0.1500
     45 H45        -6.2964    1.0065   65.3839 H       1  ZINC000440379747    0.1400
     46 H46        -6.9126    1.9509   68.0536 H       1  ZINC000440379747    0.4100
     47 H47        -8.3885    1.3622   68.5994 H       1  ZINC000440379747    0.4200
     48 H48        -9.9613   -1.8644   59.0919 H       1  ZINC000440379747    0.1400
     49 H49       -10.2350   -1.6483   56.6634 H       1  ZINC000440379747    0.1500
@<TRIPOS>BOND
     1     1     2    1
     2     1    29    1
     3     1    30    1
     4     1    31    1
     5     2     3    2
     6     2     4   am
     7     4    28    1
     8     4     5    1
     9     5     6    1
    10     5    32    1
    11     5    33    1
    12     6     7    1
    13     6    34    1
    14     6    35    1
    15     7    28   ar
    16     7     8   ar
    17     8     9   ar
    18     8    36    1
    19     9    10    1
    20     9    26   ar
    21    10    11   am
    22    10    37    1
    23    11    12    2
    24    11    13    1
    25    13    14    2
    26    13    15   am
    27    15    19    1
    28    15    16    1
    29    16    17    1
    30    16    38    1
    31    16    39    1
    32    17    18    1
    33    17    40    1
    34    17    41    1
    35    18    19    1
    36    18    42    1
    37    18    43    1
    38    19    20    1
    39    19    21    1
    40    21    22    1
    41    21    44    1
    42    21    45    1
    43    22    23   am
    44    22    24    2
    45    22    25    2
    46    23    46    1
    47    23    47    1
    48    26    27   ar
    49    26    48    1
    50    27    28   ar
    51    27    49    1
@<TRIPOS>SUBSTRUCTURE
     1 ZINC000440379747        1 TEMP              0 ****  ****    0 ROOT


##########                                Name:    ZINC000489403631
##########                DOCK_Rotatable_Bonds:                   7
##########                         Heavy_Atoms:                  28
##########                    Molecular_Weight:             381.391
##########                DOCK_Rotatable_Bonds:                   7
##########                       Formal_Charge:          -0.0300003
##########                     HBond_Acceptors:                   9
##########                        HBond_Donors:                   1
##########                         Heavy_Atoms:                  28
##########                          Grid_Score:          -31.610666
##########                     Grid_vdw_energy:          -31.890450
##########                      Grid_es_energy:            0.279784
##########           Internal_energy_repulsive:           16.418320

@<TRIPOS>MOLECULE
ZINC000489403631
 47 49 1 0 0
SMALL
USER_CHARGES


@<TRIPOS>ATOM
      1 C1         -1.4589   -1.1210   46.5403 C.3     1  ZINC000489403631   -0.1100
      2 C2         -1.7751    0.3326   46.7805 C.ar    1  ZINC000489403631   -0.0800
      3 C3         -1.6503    0.8660   48.0477 C.ar    1  ZINC000489403631   -0.0900
      4 C4         -1.9418    2.2057   48.2688 C.ar    1  ZINC000489403631    0.1200
      5 N5         -1.8150    2.7474   49.5545 N.am    1  ZINC000489403631   -0.6600
      6 C6         -2.8977    3.2404   50.1878 C.2     1  ZINC000489403631    0.5100
      7 O7         -3.9819    3.2152   49.6446 O.2     1  ZINC000489403631   -0.4600
      8 C8         -2.7613    3.8232   51.5709 C.3     1  ZINC000489403631    0.1700
      9 C9         -1.6192    3.1222   52.3093 C.3     1  ZINC000489403631   -0.1700
     10 C10        -2.4586    5.3193   51.4663 C.3     1  ZINC000489403631   -0.1700
     11 N11        -4.0120    3.6285   52.3084 N.pl3   1  ZINC000489403631   -0.3400
     12 C12        -4.8796    2.6080   52.1445 C.2     1  ZINC000489403631    0.1500
     13 C13        -5.9026    2.7932   53.0107 C.2     1  ZINC000489403631   -0.1900
     14 N14        -7.0790    1.9093   53.1708 N.pl3   1  ZINC000489403631    0.0700
     15 O15        -7.9395    2.1825   53.9884 O.2     1  ZINC000489403631   -0.1700
     16 O16        -7.1865    0.9085   52.4848 O.2     1  ZINC000489403631   -0.1600
     17 C17        -5.6516    3.9672   53.7284 C.2     1  ZINC000489403631    0.1000
     18 N18        -4.5155    4.4654   53.3125 N.2     1  ZINC000489403631   -0.2200
     19 C19        -2.3585    3.0079   47.2151 C.ar    1  ZINC000489403631   -0.1100
     20 C20        -2.4829    2.4733   45.9479 C.ar    1  ZINC000489403631   -0.1700
     21 C21        -2.1861    1.1364   45.7265 C.ar    1  ZINC000489403631    0.1000
     22 O22        -2.3088    0.6107   44.4787 O.3     1  ZINC000489403631   -0.2500
     23 C23        -1.1949    0.5350   43.7070 C.ar    1  ZINC000489403631    0.1400
     24 C24         0.0021    1.1141   44.1217 C.ar    1  ZINC000489403631   -0.2000
     25 C25         1.1122    1.0153   43.3085 C.ar    1  ZINC000489403631    0.1200
     26 N26         1.0493    0.3825   42.1522 N.ar    1  ZINC000489403631   -0.4900
     27 C27        -0.0661   -0.1789   41.7249 C.ar    1  ZINC000489403631    0.1200
     28 C28        -1.2180   -0.1289   42.4826 C.ar    1  ZINC000489403631   -0.1800
     29 H29        -0.4038   -1.2264   46.2877 H       1  ZINC000489403631    0.0700
     30 H30        -1.6754   -1.6937   47.4422 H       1  ZINC000489403631    0.0700
     31 H31        -2.0686   -1.4945   45.7176 H       1  ZINC000489403631    0.0700
     32 H32        -1.3266    0.2412   48.8671 H       1  ZINC000489403631    0.1500
     33 H33        -0.9479    2.7676   49.9888 H       1  ZINC000489403631    0.4100
     34 H34        -0.6886    3.2671   51.7605 H       1  ZINC000489403631    0.1000
     35 H35        -1.5205    3.5437   53.3096 H       1  ZINC000489403631    0.0900
     36 H36        -1.8349    2.0563   52.3838 H       1  ZINC000489403631    0.0800
     37 H37        -3.2721    5.8188   50.9402 H       1  ZINC000489403631    0.0800
     38 H38        -2.3599    5.7408   52.4667 H       1  ZINC000489403631    0.0900
     39 H39        -1.5280    5.4642   50.9175 H       1  ZINC000489403631    0.0900
     40 H40        -4.7762    1.7901   51.4468 H       1  ZINC000489403631    0.2000
     41 H41        -6.2838    4.3871   54.4967 H       1  ZINC000489403631    0.2100
     42 H42        -2.5856    4.0497   47.3865 H       1  ZINC000489403631    0.1300
     43 H43        -2.8069    3.0973   45.1281 H       1  ZINC000489403631    0.1300
     44 H44         0.0603    1.6337   45.0667 H       1  ZINC000489403631    0.1400
     45 H45         2.0444    1.4617   43.6220 H       1  ZINC000489403631    0.1600
     46 H46        -0.0762   -0.6873   40.7721 H       1  ZINC000489403631    0.1700
     47 H47        -2.1274   -0.5906   42.1274 H       1  ZINC000489403631    0.1500
@<TRIPOS>BOND
     1     1     2    1
     2     1    29    1
     3     1    30    1
     4     1    31    1
     5     2    21   ar
     6     2     3   ar
     7     3     4   ar
     8     3    32    1
     9     4     5    1
    10     4    19   ar
    11     5     6   am
    12     5    33    1
    13     6     7    2
    14     6     8    1
    15     8     9    1
    16     8    10    1
    17     8    11    1
    18     9    34    1
    19     9    35    1
    20     9    36    1
    21    10    37    1
    22    10    38    1
    23    10    39    1
    24    11    18    1
    25    11    12    1
    26    12    13    2
    27    12    40    1
    28    13    14    1
    29    13    17    1
    30    14    15    2
    31    14    16    2
    32    17    18    2
    33    17    41    1
    34    19    20   ar
    35    19    42    1
    36    20    21   ar
    37    20    43    1
    38    21    22    1
    39    22    23    1
    40    23    28   ar
    41    23    24   ar
    42    24    25   ar
    43    24    44    1
    44    25    26   ar
    45    25    45    1
    46    26    27   ar
    47    27    28   ar
    48    27    46    1
    49    28    47    1
@<TRIPOS>SUBSTRUCTURE
     1 ZINC000489403631        1 TEMP              0 ****  ****    0 ROOT


##########                                Name:    ZINC000375302598
##########                DOCK_Rotatable_Bonds:                   8
##########                         Heavy_Atoms:                  27
##########                    Molecular_Weight:             368.479
##########                DOCK_Rotatable_Bonds:                   8
##########                       Formal_Charge:               -0.02
##########                     HBond_Acceptors:                   6
##########                        HBond_Donors:                   1
##########                         Heavy_Atoms:                  27
##########                          Grid_Score:          -31.587297
##########                     Grid_vdw_energy:          -31.967987
##########                      Grid_es_energy:            0.380689
##########           Internal_energy_repulsive:            6.814945

@<TRIPOS>MOLECULE
ZINC000375302598
 55 58 1 0 0
SMALL
USER_CHARGES


@<TRIPOS>ATOM
      1 C1          0.8903   -1.0181   47.0891 C.3     1  ZINC000375302598   -0.1500
      2 C2         -0.4123   -1.3013   47.8403 C.3     1  ZINC000375302598   -0.0300
      3 C3         -1.3379   -0.1200   47.7039 C.2     1  ZINC000375302598    0.1800
      4 N4         -1.5955    0.7803   48.6218 N.2     1  ZINC000375302598   -0.4700
      5 C5         -2.4685    1.6335   48.0571 C.2     1  ZINC000375302598    0.1800
      6 C6         -3.0745    2.8502   48.7079 C.3     1  ZINC000375302598    0.1500
      7 N7         -3.0410    2.6923   50.1680 N.3     1  ZINC000375302598   -0.5300
      8 C8         -2.1087    3.6481   50.7794 C.3     1  ZINC000375302598    0.0500
      9 C9         -1.9900    3.3596   52.2776 C.3     1  ZINC000375302598   -0.1100
     10 C10        -3.3717    3.4794   52.9266 C.3     1  ZINC000375302598   -0.1300
     11 C11        -4.3356    2.5082   52.2394 C.3     1  ZINC000375302598    0.1500
     12 H12        -3.9877    1.4857   52.3857 H       1  ZINC000375302598    0.1000
     13 N13        -5.6738    2.6569   52.8167 N.am    1  ZINC000375302598   -0.7300
     14 C14        -6.5492    1.6335   52.7613 C.2     1  ZINC000375302598    0.5200
     15 O15        -6.2295    0.5901   52.2321 O.2     1  ZINC000375302598   -0.5300
     16 C16        -7.9251    1.7859   53.3566 C.3     1  ZINC000375302598   -0.1100
     17 C17        -8.4456    0.4156   53.7953 C.3     1  ZINC000375302598   -0.1200
     18 H18        -7.7929   -0.1422   54.4668 H       1  ZINC000375302598    0.1200
     19 C19        -9.2683   -0.3845   52.7834 C.3     1  ZINC000375302598   -0.1700
     20 C20        -9.9555    0.2622   53.9887 C.3     1  ZINC000375302598   -0.1100
     21 H21       -10.5782    1.1375   53.8033 H       1  ZINC000375302598    0.1100
     22 C22       -10.4272   -0.6489   55.0925 C.ar    1  ZINC000375302598   -0.0500
     23 C23       -11.6284   -1.3216   54.9674 C.ar    1  ZINC000375302598   -0.1200
     24 C24       -12.0612   -2.1574   55.9799 C.ar    1  ZINC000375302598   -0.1200
     25 C25       -11.2926   -2.3209   57.1172 C.ar    1  ZINC000375302598   -0.1300
     26 C26       -10.0910   -1.6489   57.2418 C.ar    1  ZINC000375302598   -0.1200
     27 C27        -9.6562   -0.8164   56.2275 C.ar    1  ZINC000375302598   -0.1100
     28 C28        -4.3863    2.8214   50.7423 C.3     1  ZINC000375302598    0.0500
     29 N29        -2.6931    1.2163   46.8471 N.2     1  ZINC000375302598   -0.3800
     30 O30        -2.0487    0.2134   46.6224 O.3     1  ZINC000375302598    0.0800
     31 H31         1.3669   -0.1326   47.5095 H       1  ZINC000375302598    0.0600
     32 H32         1.5597   -1.8726   47.1876 H       1  ZINC000375302598    0.0800
     33 H33         0.6719   -0.8473   46.0349 H       1  ZINC000375302598    0.0600
     34 H34        -0.8890   -2.1868   47.4198 H       1  ZINC000375302598    0.1100
     35 H35        -0.1939   -1.4721   48.8944 H       1  ZINC000375302598    0.1000
     36 H36        -2.5049    3.7354   48.4249 H       1  ZINC000375302598    0.0700
     37 H37        -4.1074    2.9621   48.3782 H       1  ZINC000375302598    0.1100
     38 H38        -1.1290    3.5496   50.3118 H       1  ZINC000375302598    0.0800
     39 H39        -2.4805    4.6622   50.6332 H       1  ZINC000375302598    0.0400
     40 H40        -1.6052    2.3504   52.4245 H       1  ZINC000375302598    0.0700
     41 H41        -1.3099    4.0790   52.7340 H       1  ZINC000375302598    0.0700
     42 H42        -3.2992    3.2324   53.9858 H       1  ZINC000375302598    0.0700
     43 H43        -3.7399    4.4991   52.8138 H       1  ZINC000375302598    0.0600
     44 H44        -5.9299    3.4918   53.2389 H       1  ZINC000375302598    0.4000
     45 H45        -7.8759    2.4493   54.2202 H       1  ZINC000375302598    0.1000
     46 H46        -8.5988    2.2089   52.6115 H       1  ZINC000375302598    0.1000
     47 H47        -9.4388    0.0653   51.8054 H       1  ZINC000375302598    0.1000
     48 H48        -9.1573   -1.4688   52.7896 H       1  ZINC000375302598    0.1000
     49 H49       -12.2289   -1.1939   54.0788 H       1  ZINC000375302598    0.1200
     50 H50       -12.9999   -2.6824   55.8825 H       1  ZINC000375302598    0.1200
     51 H51       -11.6310   -2.9733   57.9085 H       1  ZINC000375302598    0.1200
     52 H52        -9.4907   -1.7763   58.1305 H       1  ZINC000375302598    0.1200
     53 H53        -8.7174   -0.2913   56.3249 H       1  ZINC000375302598    0.1200
     54 H54        -4.7475    3.8394   50.5962 H       1  ZINC000375302598    0.0400
     55 H55        -5.0609    2.1225   50.2477 H       1  ZINC000375302598    0.0900
@<TRIPOS>BOND
     1     1     2    1
     2     1    31    1
     3     1    32    1
     4     1    33    1
     5     2     3    1
     6     2    34    1
     7     2    35    1
     8     3    30    1
     9     3     4    2
    10     4     5    1
    11     5     6    1
    12     5    29    2
    13     6     7    1
    14     6    36    1
    15     6    37    1
    16     7    28    1
    17     7     8    1
    18     8     9    1
    19     8    38    1
    20     8    39    1
    21     9    10    1
    22     9    40    1
    23     9    41    1
    24    10    11    1
    25    10    42    1
    26    10    43    1
    27    11    12    1
    28    11    13    1
    29    11    28    1
    30    13    14   am
    31    13    44    1
    32    14    15    2
    33    14    16    1
    34    16    17    1
    35    16    45    1
    36    16    46    1
    37    17    18    1
    38    17    20    1
    39    17    19    1
    40    19    20    1
    41    19    47    1
    42    19    48    1
    43    20    21    1
    44    20    22    1
    45    22    27   ar
    46    22    23   ar
    47    23    24   ar
    48    23    49    1
    49    24    25   ar
    50    24    50    1
    51    25    26   ar
    52    25    51    1
    53    26    27   ar
    54    26    52    1
    55    27    53    1
    56    28    54    1
    57    28    55    1
    58    29    30    1
@<TRIPOS>SUBSTRUCTURE
     1 ZINC000375302598        1 TEMP              0 ****  ****    0 ROOT


##########                                Name:    ZINC000426567005
##########                DOCK_Rotatable_Bonds:                   9
##########                         Heavy_Atoms:                  31
##########                    Molecular_Weight:             417.467
##########                DOCK_Rotatable_Bonds:                   9
##########                       Formal_Charge:        -2.23517e-07
##########                     HBond_Acceptors:                   8
##########                        HBond_Donors:                   4
##########                         Heavy_Atoms:                  31
##########                          Grid_Score:          -31.572002
##########                     Grid_vdw_energy:          -31.401600
##########                      Grid_es_energy:           -0.170402
##########           Internal_energy_repulsive:           14.879574

@<TRIPOS>MOLECULE
ZINC000426567005
 54 57 1 0 0
SMALL
USER_CHARGES


@<TRIPOS>ATOM
      1 O1        -10.7769   -2.3594   54.8343 O.2     1  ZINC000426567005   -0.4900
      2 C2        -10.2252   -1.4706   55.4501 C.2     1  ZINC000426567005    0.5200
      3 N3        -10.6707   -1.1212   56.6732 N.am    1  ZINC000426567005   -0.6000
      4 C4        -11.7728   -1.7790   57.2307 C.2     1  ZINC000426567005    0.3000
      5 N5        -12.3565   -2.8511   56.7477 N.2     1  ZINC000426567005   -0.3100
      6 N6        -13.4163   -3.1917   57.5979 N.pl3   1  ZINC000426567005   -0.4600
      7 C7        -13.4508   -2.2927   58.6044 C.2     1  ZINC000426567005    0.1100
      8 C8        -14.4325   -2.2785   59.7477 C.3     1  ZINC000426567005   -0.0300
      9 C9        -13.7066   -1.9744   61.0817 C.3     1  ZINC000426567005   -0.1200
     10 C10       -14.8437   -1.4084   61.9682 C.3     1  ZINC000426567005   -0.1300
     11 C11       -15.6933   -0.5611   60.9986 C.3     1  ZINC000426567005   -0.1300
     12 C12       -15.4319   -1.1143   59.5868 C.3     1  ZINC000426567005   -0.1200
     13 C13       -12.4444   -1.4113   58.4083 C.2     1  ZINC000426567005   -0.2600
     14 C14        -9.0497   -0.7690   54.8556 C.2     1  ZINC000426567005    0.5200
     15 O15        -8.2785   -0.1635   55.5711 O.2     1  ZINC000426567005   -0.4900
     16 N16        -8.8445   -0.8075   53.5241 N.am    1  ZINC000426567005   -0.6400
     17 C17        -7.7476   -0.1528   52.9693 C.ar    1  ZINC000426567005    0.1700
     18 C18        -6.7519   -0.8855   52.3298 C.ar    1  ZINC000426567005   -0.1300
     19 C19        -5.6665   -0.2414   51.7804 C.ar    1  ZINC000426567005   -0.0300
     20 C20        -5.5652    1.1500   51.8648 C.ar    1  ZINC000426567005   -0.1500
     21 C21        -4.4031    1.8439   51.2764 C.2     1  ZINC000426567005    0.5600
     22 O22        -3.8274    2.7085   51.9084 O.2     1  ZINC000426567005   -0.5100
     23 N23        -3.9802    1.5192   50.0386 N.am    1  ZINC000426567005   -0.6700
     24 C24        -2.8790    2.1767   49.4811 C.ar    1  ZINC000426567005    0.1400
     25 C25        -3.0602    3.3521   48.7637 C.ar    1  ZINC000426567005   -0.1500
     26 C26        -1.9705    3.9993   48.2148 C.ar    1  ZINC000426567005   -0.1000
     27 C27        -0.7002    3.4782   48.3788 C.ar    1  ZINC000426567005   -0.1300
     28 C28        -0.5164    2.3079   49.0921 C.ar    1  ZINC000426567005   -0.1000
     29 C29        -1.6011    1.6589   49.6485 C.ar    1  ZINC000426567005   -0.1200
     30 C30        -6.5669    1.8830   52.5071 C.ar    1  ZINC000426567005   -0.0600
     31 C31        -7.6522    1.2333   53.0503 C.ar    1  ZINC000426567005   -0.1400
     32 H32       -10.2273   -0.4138   57.1672 H       1  ZINC000426567005    0.4300
     33 H33       -14.0199   -3.9424   57.4835 H       1  ZINC000426567005    0.4400
     34 H34       -14.9614   -3.2297   59.8070 H       1  ZINC000426567005    0.1100
     35 H35       -13.2965   -2.8866   61.5150 H       1  ZINC000426567005    0.0800
     36 H36       -12.9244   -1.2296   60.9348 H       1  ZINC000426567005    0.0700
     37 H37       -15.4390   -2.2189   62.3885 H       1  ZINC000426567005    0.0700
     38 H38       -14.4336   -0.7838   62.7618 H       1  ZINC000426567005    0.0700
     39 H39       -16.7502   -0.6566   61.2473 H       1  ZINC000426567005    0.0700
     40 H40       -15.3897    0.4844   61.0521 H       1  ZINC000426567005    0.0700
     41 H41       -15.0013   -0.3373   58.9551 H       1  ZINC000426567005    0.0600
     42 H42       -16.3619   -1.4783   59.1502 H       1  ZINC000426567005    0.0700
     43 H43       -12.2039   -0.5698   59.0409 H       1  ZINC000426567005    0.1700
     44 H44        -9.4608   -1.2913   52.9522 H       1  ZINC000426567005    0.4300
     45 H45        -6.8308   -1.9607   52.2649 H       1  ZINC000426567005    0.1500
     46 H46        -4.8938   -0.8105   51.2851 H       1  ZINC000426567005    0.1400
     47 H47        -4.4395    0.8295   49.5345 H       1  ZINC000426567005    0.4100
     48 H48        -4.0521    3.7594   48.6350 H       1  ZINC000426567005    0.1300
     49 H49        -2.1108    4.9131   47.6565 H       1  ZINC000426567005    0.1300
     50 H50         0.1503    3.9862   47.9486 H       1  ZINC000426567005    0.1200
     51 H51         0.4770    1.9031   49.2179 H       1  ZINC000426567005    0.1300
     52 H52        -1.4570    0.7450   50.2058 H       1  ZINC000426567005    0.1300
     53 H53        -6.4914    2.9583   52.5743 H       1  ZINC000426567005    0.1300
     54 H54        -8.4267    1.7992   53.5468 H       1  ZINC000426567005    0.1400
@<TRIPOS>BOND
     1     1     2    2
     2     2     3   am
     3     2    14    1
     4     3     4    1
     5     3    32    1
     6     4    13    1
     7     4     5    2
     8     5     6    1
     9     6     7    1
    10     6    33    1
    11     7     8    1
    12     7    13    2
    13     8    12    1
    14     8     9    1
    15     8    34    1
    16     9    10    1
    17     9    35    1
    18     9    36    1
    19    10    11    1
    20    10    37    1
    21    10    38    1
    22    11    12    1
    23    11    39    1
    24    11    40    1
    25    12    41    1
    26    12    42    1
    27    13    43    1
    28    14    15    2
    29    14    16   am
    30    16    17    1
    31    16    44    1
    32    17    31   ar
    33    17    18   ar
    34    18    19   ar
    35    18    45    1
    36    19    20   ar
    37    19    46    1
    38    20    21    1
    39    20    30   ar
    40    21    22    2
    41    21    23   am
    42    23    24    1
    43    23    47    1
    44    24    29   ar
    45    24    25   ar
    46    25    26   ar
    47    25    48    1
    48    26    27   ar
    49    26    49    1
    50    27    28   ar
    51    27    50    1
    52    28    29   ar
    53    28    51    1
    54    29    52    1
    55    30    31   ar
    56    30    53    1
    57    31    54    1
@<TRIPOS>SUBSTRUCTURE
     1 ZINC000426567005        1 TEMP              0 ****  ****    0 ROOT


##########                                Name:    ZINC001109404798
##########                DOCK_Rotatable_Bonds:                   7
##########                         Heavy_Atoms:                  25
##########                    Molecular_Weight:              360.48
##########                DOCK_Rotatable_Bonds:                   7
##########                       Formal_Charge:           0.0100002
##########                     HBond_Acceptors:                   7
##########                        HBond_Donors:                   1
##########                         Heavy_Atoms:                  25
##########                          Grid_Score:          -31.552990
##########                     Grid_vdw_energy:          -30.482092
##########                      Grid_es_energy:           -1.070899
##########           Internal_energy_repulsive:           27.693857

@<TRIPOS>MOLECULE
ZINC001109404798
 49 52 1 0 0
SMALL
USER_CHARGES


@<TRIPOS>ATOM
      1 C1          2.4531    0.7782   42.6612 C.3     1  ZINC001109404798   -0.0600
      2 C2          1.7596    1.3908   43.8507 C.2     1  ZINC001109404798    0.1700
      3 N3          2.3337    1.8627   44.9167 N.2     1  ZINC001109404798   -0.3900
      4 O4          1.5005    2.2864   45.6897 O.3     1  ZINC001109404798    0.1000
      5 C5          0.2786    2.1198   45.1747 C.2     1  ZINC001109404798    0.1900
      6 C6         -1.0272    2.5116   45.8168 C.3     1  ZINC001109404798    0.1600
      7 H7         -1.8057    1.8115   45.5138 H       1  ZINC001109404798    0.1000
      8 C8         -1.4106    3.9245   45.3719 C.3     1  ZINC001109404798   -0.1500
      9 N9         -0.8827    2.4809   47.2784 N.3     1  ZINC001109404798   -0.4800
     10 C10        -0.5432    1.0938   47.7582 C.3     1  ZINC001109404798    0.0400
     11 H11         0.4096    0.6913   47.4142 H       1  ZINC001109404798    0.1100
     12 C12        -1.8092    0.3044   47.3080 C.3     1  ZINC001109404798   -0.1600
     13 C13        -2.9500    1.3425   47.4426 C.3     1  ZINC001109404798   -0.1600
     14 C14        -2.2208    2.6206   47.9563 C.3     1  ZINC001109404798    0.0400
     15 H15        -2.7444    3.5615   47.7864 H       1  ZINC001109404798    0.1200
     16 C16        -1.8585    2.3104   49.4400 C.3     1  ZINC001109404798    0.1500
     17 H17        -1.5044    3.2094   49.9444 H       1  ZINC001109404798    0.1000
     18 N18        -3.0114    1.7453   50.1452 N.am    1  ZINC001109404798   -0.7200
     19 C19        -3.7671    2.5302   50.9385 C.2     1  ZINC001109404798    0.5100
     20 O20        -3.4935    3.7047   51.0674 O.2     1  ZINC001109404798   -0.5300
     21 C21        -4.9521    1.9485   51.6654 C.3     1  ZINC001109404798   -0.1300
     22 C22        -5.4995    0.7570   50.8771 C.3     1  ZINC001109404798   -0.0400
     23 C23        -6.7743    0.2730   51.5186 C.2     1  ZINC001109404798   -0.1000
     24 C24        -7.0235    0.4212   52.8206 C.2     1  ZINC001109404798   -0.2100
     25 S25        -8.5989   -0.2620   53.2011 S.3     1  ZINC001109404798    0.1000
     26 C26        -8.8376   -0.7240   51.5210 C.2     1  ZINC001109404798   -0.2100
     27 C27        -7.7780   -0.3537   50.8003 C.2     1  ZINC001109404798   -0.1300
     28 C28        -0.6818    1.2698   49.3006 C.3     1  ZINC001109404798   -0.1100
     29 N29         0.4333    1.5549   44.0014 N.2     1  ZINC001109404798   -0.4800
     30 H30         2.6850    1.5572   41.9348 H       1  ZINC001109404798    0.0900
     31 H31         3.3762    0.2982   42.9862 H       1  ZINC001109404798    0.0900
     32 H32         1.7998    0.0363   42.2021 H       1  ZINC001109404798    0.0900
     33 H33        -1.5178    3.9473   44.2874 H       1  ZINC001109404798    0.0700
     34 H34        -2.3551    4.2079   45.8364 H       1  ZINC001109404798    0.0800
     35 H35        -0.6321    4.6247   45.6749 H       1  ZINC001109404798    0.0800
     36 H36        -1.7091   -0.0237   46.2734 H       1  ZINC001109404798    0.0700
     37 H37        -1.9851   -0.5465   47.9662 H       1  ZINC001109404798    0.0800
     38 H38        -3.4153    1.5291   46.4748 H       1  ZINC001109404798    0.0700
     39 H39        -3.6914    1.0062   48.1674 H       1  ZINC001109404798    0.0800
     40 H40        -3.2310    0.8062   50.0413 H       1  ZINC001109404798    0.4000
     41 H41        -4.6435    1.6173   52.6570 H       1  ZINC001109404798    0.0900
     42 H42        -5.7282    2.7080   51.7614 H       1  ZINC001109404798    0.1000
     43 H43        -5.7026    1.0628   49.8507 H       1  ZINC001109404798    0.0800
     44 H44        -4.7642   -0.0477   50.8777 H       1  ZINC001109404798    0.0800
     45 H45        -6.3593    0.8887   53.5324 H       1  ZINC001109404798    0.1600
     46 H46        -9.7107   -1.2264   51.1314 H       1  ZINC001109404798    0.1600
     47 H47        -7.7052   -0.5362   49.7383 H       1  ZINC001109404798    0.1400
     48 H48        -0.9553    0.3180   49.7563 H       1  ZINC001109404798    0.0800
     49 H49         0.2321    1.6617   49.7471 H       1  ZINC001109404798    0.0900
@<TRIPOS>BOND
     1     1     2    1
     2     1    30    1
     3     1    31    1
     4     1    32    1
     5     2    29    1
     6     2     3    2
     7     3     4    1
     8     4     5    1
     9     5     6    1
    10     5    29    2
    11     6     7    1
    12     6     8    1
    13     6     9    1
    14     8    33    1
    15     8    34    1
    16     8    35    1
    17     9    14    1
    18     9    10    1
    19    10    11    1
    20    10    28    1
    21    10    12    1
    22    12    13    1
    23    12    36    1
    24    12    37    1
    25    13    14    1
    26    13    38    1
    27    13    39    1
    28    14    15    1
    29    14    16    1
    30    16    17    1
    31    16    18    1
    32    16    28    1
    33    18    19   am
    34    18    40    1
    35    19    20    2
    36    19    21    1
    37    21    22    1
    38    21    41    1
    39    21    42    1
    40    22    23    1
    41    22    43    1
    42    22    44    1
    43    23    27    1
    44    23    24    2
    45    24    25    1
    46    24    45    1
    47    25    26    1
    48    26    27    2
    49    26    46    1
    50    27    47    1
    51    28    48    1
    52    28    49    1
@<TRIPOS>SUBSTRUCTURE
     1 ZINC001109404798        1 TEMP              0 ****  ****    0 ROOT


##########                                Name:    ZINC000629379364
##########                DOCK_Rotatable_Bonds:                   5
##########                         Heavy_Atoms:                  23
##########                    Molecular_Weight:             386.261
##########                DOCK_Rotatable_Bonds:                   5
##########                       Formal_Charge:               -0.02
##########                     HBond_Acceptors:                   5
##########                        HBond_Donors:                   1
##########                         Heavy_Atoms:                  23
##########                          Grid_Score:          -31.490805
##########                     Grid_vdw_energy:          -32.923393
##########                      Grid_es_energy:            1.432588
##########           Internal_energy_repulsive:           21.282537

@<TRIPOS>MOLECULE
ZINC000629379364
 44 46 1 0 0
SMALL
USER_CHARGES


@<TRIPOS>ATOM
      1 O1          0.1690   -1.9599   48.7042 O.co2   1  ZINC000629379364   -0.6800
      2 C2          0.6498   -1.2126   47.8695 C.2     1  ZINC000629379364    0.5000
      3 O3          1.4740   -1.6343   47.0761 O.co2   1  ZINC000629379364   -0.6900
      4 C4          0.2209    0.2311   47.8144 C.3     1  ZINC000629379364   -0.1600
      5 H5          1.0098    0.8369   47.3685 H       1  ZINC000629379364    0.0800
      6 C6         -0.0955    0.7401   49.2316 C.3     1  ZINC000629379364   -0.1300
      7 C7         -0.6700    2.1530   49.1949 C.3     1  ZINC000629379364   -0.0100
      8 N8         -1.8479    2.2433   48.3105 N.4     1  ZINC000629379364   -0.3700
      9 H9         -2.2024    3.1879   48.3071 H       1  ZINC000629379364    0.4200
     10 C10        -2.8922    1.3203   48.7745 C.3     1  ZINC000629379364   -0.0200
     11 C11        -3.6743    1.9685   49.9185 C.3     1  ZINC000629379364    0.0300
     12 O12        -4.5897    1.0186   50.4679 O.3     1  ZINC000629379364   -0.3200
     13 C13        -5.3673    1.4373   51.5008 C.ar    1  ZINC000629379364    0.1600
     14 C14        -5.2563    2.7372   51.9709 C.ar    1  ZINC000629379364   -0.2300
     15 C15        -6.0492    3.1615   53.0228 C.ar    1  ZINC000629379364    0.1500
     16 F16        -5.9419    4.4277   53.4816 F       1  ZINC000629379364   -0.1200
     17 C17        -6.9527    2.2886   53.6050 C.ar    1  ZINC000629379364   -0.1600
     18 C18        -7.0637    0.9915   53.1368 C.ar    1  ZINC000629379364   -0.0300
     19 Br19       -8.2987   -0.1981   53.9341 Br      1  ZINC000629379364   -0.0100
     20 C20        -6.2774    0.5663   52.0825 C.ar    1  ZINC000629379364   -0.1300
     21 C21        -1.4175    1.8722   46.9722 C.3     1  ZINC000629379364   -0.0100
     22 H22        -0.5451    2.4590   46.6847 H       1  ZINC000629379364    0.1400
     23 C23        -2.4821    1.9412   45.8724 C.3     1  ZINC000629379364   -0.1300
     24 C24        -1.9246    0.9815   44.7862 C.3     1  ZINC000629379364   -0.1200
     25 C25        -0.9799   -0.0039   45.5174 C.3     1  ZINC000629379364   -0.1100
     26 C26        -1.0560    0.3625   47.0021 C.3     1  ZINC000629379364   -0.0700
     27 H27        -1.8719   -0.1816   47.4779 H       1  ZINC000629379364    0.1000
     28 H28        -0.8197    0.0720   49.6977 H       1  ZINC000629379364    0.0800
     29 H29         0.8199    0.7419   49.8232 H       1  ZINC000629379364    0.1100
     30 H30        -0.9607    2.4445   50.2042 H       1  ZINC000629379364    0.1200
     31 H31         0.0970    2.8390   48.8357 H       1  ZINC000629379364    0.1300
     32 H32        -3.5709    1.0963   47.9514 H       1  ZINC000629379364    0.1400
     33 H33        -2.4312    0.3974   49.1266 H       1  ZINC000629379364    0.1700
     34 H34        -2.9808    2.2950   50.6935 H       1  ZINC000629379364    0.1100
     35 H35        -4.2268    2.8283   49.5397 H       1  ZINC000629379364    0.0900
     36 H36        -4.5515    3.4179   51.5166 H       1  ZINC000629379364    0.1500
     37 H37        -7.5714    2.6207   54.4256 H       1  ZINC000629379364    0.1500
     38 H38        -6.3650   -0.4464   51.7176 H       1  ZINC000629379364    0.1500
     39 H39        -3.4434    1.5862   46.2436 H       1  ZINC000629379364    0.0800
     40 H40        -2.5687    2.9554   45.4827 H       1  ZINC000629379364    0.0900
     41 H41        -2.7415    0.4359   44.3142 H       1  ZINC000629379364    0.0800
     42 H42        -1.3693    1.5463   44.0375 H       1  ZINC000629379364    0.0800
     43 H43        -1.3065   -1.0310   45.3545 H       1  ZINC000629379364    0.0900
     44 H44         0.0447    0.1268   45.1691 H       1  ZINC000629379364    0.0800
@<TRIPOS>BOND
     1     1     2   ar
     2     2     3   ar
     3     2     4    1
     4     4     5    1
     5     4    26    1
     6     4     6    1
     7     6     7    1
     8     6    28    1
     9     6    29    1
    10     7     8    1
    11     7    30    1
    12     7    31    1
    13     8     9    1
    14     8    10    1
    15     8    21    1
    16    10    11    1
    17    10    32    1
    18    10    33    1
    19    11    12    1
    20    11    34    1
    21    11    35    1
    22    12    13    1
    23    13    20   ar
    24    13    14   ar
    25    14    15   ar
    26    14    36    1
    27    15    16    1
    28    15    17   ar
    29    17    18   ar
    30    17    37    1
    31    18    19    1
    32    18    20   ar
    33    20    38    1
    34    21    22    1
    35    21    26    1
    36    21    23    1
    37    23    24    1
    38    23    39    1
    39    23    40    1
    40    24    25    1
    41    24    41    1
    42    24    42    1
    43    25    26    1
    44    25    43    1
    45    25    44    1
    46    26    27    1
@<TRIPOS>SUBSTRUCTURE
     1 ZINC000629379364        1 TEMP              0 ****  ****    0 ROOT


##########                                Name:    ZINC001191386213
##########                DOCK_Rotatable_Bonds:                   6
##########                         Heavy_Atoms:                  29
##########                    Molecular_Weight:             392.433
##########                DOCK_Rotatable_Bonds:                   6
##########                       Formal_Charge:               -0.02
##########                     HBond_Acceptors:                   7
##########                        HBond_Donors:                   2
##########                         Heavy_Atoms:                  29
##########                          Grid_Score:          -31.457739
##########                     Grid_vdw_energy:          -31.769844
##########                      Grid_es_energy:            0.312106
##########           Internal_energy_repulsive:           23.690334

@<TRIPOS>MOLECULE
ZINC001191386213
 50 53 1 0 0
SMALL
USER_CHARGES


@<TRIPOS>ATOM
      1 C1        -11.1452   -1.8197   55.3237 C.3     1  ZINC001191386213   -0.1700
      2 C2        -10.0589   -1.6700   54.2900 C.2     1  ZINC001191386213    0.5100
      3 O3         -9.5417   -2.6548   53.8069 O.2     1  ZINC001191386213   -0.5200
      4 N4         -9.6622   -0.4416   53.9023 N.am    1  ZINC001191386213   -0.6800
      5 C5         -8.6535   -0.3026   52.9424 C.ar    1  ZINC001191386213    0.1400
      6 C6         -8.6379   -1.1294   51.8260 C.ar    1  ZINC001191386213   -0.1400
      7 C7         -7.6434   -0.9945   50.8758 C.ar    1  ZINC001191386213   -0.1000
      8 C8         -6.6601   -0.0379   51.0308 C.ar    1  ZINC001191386213   -0.1100
      9 C9         -6.6679    0.7954   52.1478 C.ar    1  ZINC001191386213    0.0100
     10 C10        -5.6112    1.8245   52.3159 C.2     1  ZINC001191386213    0.0700
     11 N11        -5.7015    2.9213   53.0383 N.2     1  ZINC001191386213   -0.2500
     12 N12        -4.6134    3.6002   52.9745 N.pl3   1  ZINC001191386213   -0.3800
     13 C13        -3.7117    2.9585   52.1726 C.2     1  ZINC001191386213   -0.0400
     14 C14        -2.3490    3.4073   51.8440 C.2     1  ZINC001191386213    0.6100
     15 O15        -1.7358    4.1112   52.6238 O.2     1  ZINC001191386213   -0.5100
     16 N16        -1.7805    3.0383   50.6790 N.am    1  ZINC001191386213   -0.6200
     17 C17        -0.4329    3.4131   50.2266 C.3     1  ZINC001191386213    0.0800
     18 C18        -0.2267    2.7854   48.8318 C.3     1  ZINC001191386213   -0.1200
     19 C19        -1.6788    2.5641   48.3322 C.3     1  ZINC001191386213   -0.0600
     20 H20        -2.0887    3.4792   47.9049 H       1  ZINC001191386213    0.1000
     21 C21        -1.7419    1.4322   47.3394 C.ar    1  ZINC001191386213   -0.1100
     22 C22        -1.3597    0.1593   47.7173 C.ar    1  ZINC001191386213   -0.0900
     23 C23        -1.4174   -0.8795   46.8066 C.ar    1  ZINC001191386213   -0.1300
     24 C24        -1.8569   -0.6459   45.5171 C.ar    1  ZINC001191386213   -0.0900
     25 C25        -2.2393    0.6267   45.1366 C.ar    1  ZINC001191386213   -0.1500
     26 C26        -2.1882    1.6662   46.0495 C.ar    1  ZINC001191386213    0.1100
     27 F27        -2.5617    2.9105   45.6788 F       1  ZINC001191386213   -0.1400
     28 C28        -2.4047    2.1866   49.6502 C.3     1  ZINC001191386213    0.1200
     29 C29        -4.3293    1.8017   51.7368 C.2     1  ZINC001191386213   -0.1300
     30 C30        -7.6724    0.6646   53.1022 C.ar    1  ZINC001191386213   -0.1000
     31 H31       -11.3286   -2.8784   55.5073 H       1  ZINC001191386213    0.1000
     32 H32       -10.8332   -1.3389   56.2509 H       1  ZINC001191386213    0.0900
     33 H33       -12.0594   -1.3502   54.9607 H       1  ZINC001191386213    0.0900
     34 H34       -10.0761    0.3461   54.2886 H       1  ZINC001191386213    0.4100
     35 H35        -9.4045   -1.8797   51.7007 H       1  ZINC001191386213    0.1300
     36 H36        -7.6353   -1.6395   50.0096 H       1  ZINC001191386213    0.1300
     37 H37        -5.8844    0.0644   50.2864 H       1  ZINC001191386213    0.1300
     38 H38        -4.4552    4.4432   53.4274 H       1  ZINC001191386213    0.4400
     39 H39        -0.3525    4.4982   50.1603 H       1  ZINC001191386213    0.0700
     40 H40         0.3125    3.0259   50.9212 H       1  ZINC001191386213    0.0800
     41 H41         0.3067    3.4724   48.1748 H       1  ZINC001191386213    0.0900
     42 H42         0.3029    1.8360   48.9108 H       1  ZINC001191386213    0.0900
     43 H43        -1.0155   -0.0244   48.7245 H       1  ZINC001191386213    0.1300
     44 H44        -1.1185   -1.8741   47.1028 H       1  ZINC001191386213    0.1300
     45 H45        -1.9012   -1.4579   44.8064 H       1  ZINC001191386213    0.1300
     46 H46        -2.5820    0.8092   44.1288 H       1  ZINC001191386213    0.1400
     47 H47        -2.2514    1.1320   49.8791 H       1  ZINC001191386213    0.0800
     48 H48        -3.4693    2.4082   49.5739 H       1  ZINC001191386213    0.0900
     49 H49        -3.9180    1.0449   51.0854 H       1  ZINC001191386213    0.1700
     50 H50        -7.6825    1.3081   53.9695 H       1  ZINC001191386213    0.1500
@<TRIPOS>BOND
     1     1     2    1
     2     1    31    1
     3     1    32    1
     4     1    33    1
     5     2     3    2
     6     2     4   am
     7     4     5    1
     8     4    34    1
     9     5    30   ar
    10     5     6   ar
    11     6     7   ar
    12     6    35    1
    13     7     8   ar
    14     7    36    1
    15     8     9   ar
    16     8    37    1
    17     9    10    1
    18     9    30   ar
    19    10    29    1
    20    10    11    2
    21    11    12    1
    22    12    13    1
    23    12    38    1
    24    13    14    1
    25    13    29    2
    26    14    15    2
    27    14    16   am
    28    16    28    1
    29    16    17    1
    30    17    18    1
    31    17    39    1
    32    17    40    1
    33    18    19    1
    34    18    41    1
    35    18    42    1
    36    19    20    1
    37    19    21    1
    38    19    28    1
    39    21    26   ar
    40    21    22   ar
    41    22    23   ar
    42    22    43    1
    43    23    24   ar
    44    23    44    1
    45    24    25   ar
    46    24    45    1
    47    25    26   ar
    48    25    46    1
    49    26    27    1
    50    28    47    1
    51    28    48    1
    52    29    49    1
    53    30    50    1
@<TRIPOS>SUBSTRUCTURE
     1 ZINC001191386213        1 TEMP              0 ****  ****    0 ROOT


##########                                Name:    ZINC000543625960
##########                DOCK_Rotatable_Bonds:                   8
##########                         Heavy_Atoms:                  29
##########                    Molecular_Weight:             416.544
##########                DOCK_Rotatable_Bonds:                   8
##########                       Formal_Charge:           -0.010001
##########                     HBond_Acceptors:                   8
##########                        HBond_Donors:                   2
##########                         Heavy_Atoms:                  29
##########                          Grid_Score:          -31.436150
##########                     Grid_vdw_energy:          -32.963463
##########                      Grid_es_energy:            1.527313
##########           Internal_energy_repulsive:           11.112048

@<TRIPOS>MOLECULE
ZINC000543625960
 57 59 1 0 0
SMALL
USER_CHARGES


@<TRIPOS>ATOM
      1 C1        -12.7271   -0.4310   52.3864 C.3     1  ZINC000543625960   -0.1500
      2 C2        -11.6399    0.2156   51.5257 C.3     1  ZINC000543625960   -0.1300
      3 C3        -10.5038    0.7082   52.4244 C.3     1  ZINC000543625960    0.1500
      4 H4        -10.5190    0.1568   53.3645 H       1  ZINC000543625960    0.0800
      5 C5        -10.6866    2.2010   52.7056 C.3     1  ZINC000543625960   -0.1700
      6 N6         -9.2203    0.4916   51.7520 N.am    1  ZINC000543625960   -1.1100
      7 S7         -7.9922   -0.2880   52.5432 S.o2    1  ZINC000543625960    2.7000
      8 O8         -8.5302   -1.5197   53.0044 O.2     1  ZINC000543625960   -0.9600
      9 O9         -6.8536   -0.2055   51.6970 O.2     1  ZINC000543625960   -0.9500
     10 C10        -7.6138    0.6589   53.9802 C.ar    1  ZINC000543625960   -0.6600
     11 C11        -7.1455    1.9533   53.8507 C.ar    1  ZINC000543625960   -0.0400
     12 C12        -6.8473    2.6998   54.9761 C.ar    1  ZINC000543625960   -0.1200
     13 C13        -7.0165    2.1540   56.2333 C.ar    1  ZINC000543625960   -0.0600
     14 C14        -7.4872    0.8542   56.3668 C.ar    1  ZINC000543625960    0.1500
     15 N15        -7.6599    0.2981   57.6394 N.am    1  ZINC000543625960   -0.6800
     16 C16        -8.8850   -0.0913   58.0440 C.2     1  ZINC000543625960    0.7200
     17 O17        -9.8403    0.0404   57.3034 O.2     1  ZINC000543625960   -0.5600
     18 N18        -9.0514   -0.6269   59.2696 N.am    1  ZINC000543625960   -0.6300
     19 C19        -7.9851   -0.8433   60.2645 C.3     1  ZINC000543625960    0.0900
     20 C20        -8.7160   -0.8668   61.6302 C.3     1  ZINC000543625960   -0.1000
     21 H21        -8.1475   -1.4330   62.3679 H       1  ZINC000543625960    0.1000
     22 C22        -8.9937    0.5531   62.1281 C.3     1  ZINC000543625960   -0.1500
     23 C23       -10.0355   -1.5968   61.2649 C.3     1  ZINC000543625960   -0.1200
     24 C24       -10.3270   -1.0861   59.8381 C.3     1  ZINC000543625960    0.2000
     25 H25       -11.0390   -0.2617   59.8778 H       1  ZINC000543625960    0.0900
     26 C26       -10.8854   -2.2051   58.9973 C.ar    1  ZINC000543625960   -0.1400
     27 C27       -10.1200   -3.3285   58.7260 C.ar    1  ZINC000543625960   -0.0600
     28 C28       -10.6752   -4.3334   57.9483 C.ar    1  ZINC000543625960   -0.1700
     29 C29       -11.9639   -4.1827   57.4728 C.ar    1  ZINC000543625960    0.1000
     30 N30       -12.6631   -3.0996   57.7510 N.ar    1  ZINC000543625960   -0.4800
     31 C31       -12.1694   -2.1267   58.4915 C.ar    1  ZINC000543625960    0.1200
     32 C32        -7.7906    0.1092   55.2351 C.ar    1  ZINC000543625960   -0.0500
     33 H33       -13.5364   -0.7819   51.7461 H       1  ZINC000543625960    0.0600
     34 H34       -12.3044   -1.2742   52.9328 H       1  ZINC000543625960    0.0600
     35 H35       -13.1150    0.3024   53.0933 H       1  ZINC000543625960    0.0500
     36 H36       -11.2520   -0.5178   50.8187 H       1  ZINC000543625960    0.0700
     37 H37       -12.0626    1.0588   50.9793 H       1  ZINC000543625960    0.0800
     38 H38       -11.6415    2.3621   53.2059 H       1  ZINC000543625960    0.0700
     39 H39        -9.8773    2.5519   53.3458 H       1  ZINC000543625960    0.0700
     40 H40       -10.6714    2.7524   51.7655 H       1  ZINC000543625960    0.0600
     41 H41        -9.0899    0.8050   50.8432 H       1  ZINC000543625960    0.4200
     42 H42        -7.0119    2.3823   52.8687 H       1  ZINC000543625960    0.1400
     43 H43        -6.4813    3.7105   54.8717 H       1  ZINC000543625960    0.1400
     44 H44        -6.7829    2.7372   57.1118 H       1  ZINC000543625960    0.1400
     45 H45        -6.8978    0.1929   58.2302 H       1  ZINC000543625960    0.4100
     46 H46        -7.4862   -1.7956   60.0849 H       1  ZINC000543625960    0.0700
     47 H47        -7.2655   -0.0252   60.2335 H       1  ZINC000543625960    0.0800
     48 H48        -9.5989    1.0840   61.3932 H       1  ZINC000543625960    0.0600
     49 H49        -9.5302    0.5073   63.0758 H       1  ZINC000543625960    0.0600
     50 H50        -8.0498    1.0794   62.2701 H       1  ZINC000543625960    0.0600
     51 H51        -9.8925   -2.6774   61.2698 H       1  ZINC000543625960    0.0800
     52 H52       -10.8365   -1.3096   61.9460 H       1  ZINC000543625960    0.0900
     53 H53        -9.1150   -3.4189   59.1109 H       1  ZINC000543625960    0.1300
     54 H54       -10.1075   -5.2225   57.7167 H       1  ZINC000543625960    0.1400
     55 H55       -12.4034   -4.9606   56.8661 H       1  ZINC000543625960    0.1600
     56 H56       -12.7723   -1.2547   58.6981 H       1  ZINC000543625960    0.1400
     57 H57        -8.1568   -0.9019   55.3356 H       1  ZINC000543625960    0.1400
@<TRIPOS>BOND
     1     1     2    1
     2     1    33    1
     3     1    34    1
     4     1    35    1
     5     2     3    1
     6     2    36    1
     7     2    37    1
     8     3     4    1
     9     3     5    1
    10     3     6    1
    11     5    38    1
    12     5    39    1
    13     5    40    1
    14     6     7   am
    15     6    41    1
    16     7     8    2
    17     7     9    2
    18     7    10    1
    19    10    32   ar
    20    10    11   ar
    21    11    12   ar
    22    11    42    1
    23    12    13   ar
    24    12    43    1
    25    13    14   ar
    26    13    44    1
    27    14    15    1
    28    14    32   ar
    29    15    16   am
    30    15    45    1
    31    16    17    2
    32    16    18   am
    33    18    24    1
    34    18    19    1
    35    19    20    1
    36    19    46    1
    37    19    47    1
    38    20    21    1
    39    20    22    1
    40    20    23    1
    41    22    48    1
    42    22    49    1
    43    22    50    1
    44    23    24    1
    45    23    51    1
    46    23    52    1
    47    24    25    1
    48    24    26    1
    49    26    31   ar
    50    26    27   ar
    51    27    28   ar
    52    27    53    1
    53    28    29   ar
    54    28    54    1
    55    29    30   ar
    56    29    55    1
    57    30    31   ar
    58    31    56    1
    59    32    57    1
@<TRIPOS>SUBSTRUCTURE
     1 ZINC000543625960        1 TEMP              0 ****  ****    0 ROOT


##########                                Name:    ZINC001284642199
##########                DOCK_Rotatable_Bonds:                   8
##########                         Heavy_Atoms:                  25
##########                    Molecular_Weight:             346.516
##########                DOCK_Rotatable_Bonds:                   8
##########                       Formal_Charge:         -3.8743e-07
##########                     HBond_Acceptors:                   5
##########                        HBond_Donors:                   2
##########                         Heavy_Atoms:                  25
##########                          Grid_Score:          -31.428633
##########                     Grid_vdw_energy:          -30.350092
##########                      Grid_es_energy:           -1.078540
##########           Internal_energy_repulsive:           17.885206

@<TRIPOS>MOLECULE
ZINC001284642199
 59 60 1 0 0
SMALL
USER_CHARGES


@<TRIPOS>ATOM
      1 C1         -5.7328   -0.5118   51.8914 C.3     1  ZINC001284642199   -0.1100
      2 C2         -7.1854   -0.4804   52.2912 C.ar    1  ZINC001284642199   -0.1900
      3 C3         -7.6358    0.4019   53.2606 C.ar    1  ZINC001284642199    0.1500
      4 N4         -8.9186    0.4013   53.5855 N.ar    1  ZINC001284642199   -0.4900
      5 C5         -9.7631   -0.4240   52.9998 C.ar    1  ZINC001284642199    0.3100
      6 C6        -11.2158   -0.3925   53.3996 C.3     1  ZINC001284642199    0.1300
      7 N7        -11.4201   -1.2555   54.5707 N.3     1  ZINC001284642199   -0.6800
      8 C8        -12.8053   -1.1700   55.0523 C.3     1  ZINC001284642199    0.0500
      9 C9        -12.9402   -1.9541   56.3591 C.3     1  ZINC001284642199    0.1600
     10 H10       -12.5693   -2.9688   56.2139 H       1  ZINC001284642199    0.1000
     11 N11       -12.1589   -1.2938   57.4077 N.am    1  ZINC001284642199   -0.7200
     12 C12       -11.2085   -1.9798   58.0730 C.2     1  ZINC001284642199    0.5200
     13 O13       -10.9990   -3.1433   57.8025 O.2     1  ZINC001284642199   -0.5300
     14 C14       -10.4060   -1.3010   59.1530 C.3     1  ZINC001284642199   -0.1100
     15 H15       -10.0236   -0.3513   58.7788 H       1  ZINC001284642199    0.0900
     16 C16       -11.2992   -1.0475   60.3690 C.3     1  ZINC001284642199   -0.1000
     17 C17       -10.4845   -0.3584   61.4655 C.3     1  ZINC001284642199   -0.1100
     18 C18        -9.3134   -1.2556   61.8710 C.3     1  ZINC001284642199   -0.0900
     19 H19        -9.6959   -2.2053   62.2451 H       1  ZINC001284642199    0.0700
     20 C20        -8.4986   -0.5664   62.9673 C.3     1  ZINC001284642199   -0.1500
     21 C21        -8.4203   -1.5091   60.6549 C.3     1  ZINC001284642199   -0.1100
     22 C22        -9.2349   -2.1982   59.5585 C.3     1  ZINC001284642199   -0.1100
     23 C23       -14.4119   -2.0038   56.7745 C.3     1  ZINC001284642199   -0.0800
     24 C24       -14.5270   -2.6138   58.1728 C.3     1  ZINC001284642199   -0.1400
     25 C25       -14.9862   -0.5857   56.7878 C.3     1  ZINC001284642199   -0.1400
     26 C26       -15.1944   -2.8615   55.7779 C.3     1  ZINC001284642199   -0.1300
     27 N27        -9.3700   -1.2797   52.0778 N.ar    1  ZINC001284642199   -0.5100
     28 C28        -8.1033   -1.3327   51.6980 C.ar    1  ZINC001284642199    0.1500
     29 H29        -5.1980   -1.2229   52.5211 H       1  ZINC001284642199    0.0800
     30 H30        -5.6495   -0.8161   50.8481 H       1  ZINC001284642199    0.0700
     31 H31        -5.3000    0.4808   52.0160 H       1  ZINC001284642199    0.0700
     32 H32        -6.9490    1.0804   53.7445 H       1  ZINC001284642199    0.1700
     33 H33       -11.8281   -0.7515   52.5724 H       1  ZINC001284642199    0.1000
     34 H34       -11.5023    0.6296   53.6470 H       1  ZINC001284642199    0.0600
     35 H35       -10.7671   -1.0284   55.3056 H       1  ZINC001284642199    0.3400
     36 H36       -13.4767   -1.5919   54.3044 H       1  ZINC001284642199    0.0900
     37 H37       -13.0656   -0.1260   55.2265 H       1  ZINC001284642199    0.0400
     38 H38       -12.3256   -0.3628   57.6233 H       1  ZINC001284642199    0.3900
     39 H39       -11.6817   -1.9972   60.7432 H       1  ZINC001284642199    0.0700
     40 H40       -12.1335   -0.4083   60.0803 H       1  ZINC001284642199    0.0700
     41 H41       -11.1208   -0.1778   62.3318 H       1  ZINC001284642199    0.0700
     42 H42       -10.1020    0.5914   61.0914 H       1  ZINC001284642199    0.0600
     43 H43        -9.1350   -0.3859   63.8337 H       1  ZINC001284642199    0.0500
     44 H44        -7.6643   -1.2056   63.2562 H       1  ZINC001284642199    0.0500
     45 H45        -8.1162    0.3832   62.5932 H       1  ZINC001284642199    0.0500
     46 H46        -8.0378   -0.5594   60.2807 H       1  ZINC001284642199    0.0600
     47 H47        -7.5859   -2.1482   60.9436 H       1  ZINC001284642199    0.0700
     48 H48        -9.6174   -3.1479   59.9326 H       1  ZINC001284642199    0.0700
     49 H49        -8.5987   -2.3788   58.6921 H       1  ZINC001284642199    0.0600
     50 H50       -13.9695   -2.0028   58.8828 H       1  ZINC001284642199    0.0600
     51 H51       -15.5754   -2.6493   58.4687 H       1  ZINC001284642199    0.0600
     52 H52       -14.1179   -3.6241   58.1632 H       1  ZINC001284642199    0.0500
     53 H53       -14.9043   -0.1510   55.7917 H       1  ZINC001284642199    0.0600
     54 H54       -16.0347   -0.6211   57.0838 H       1  ZINC001284642199    0.0600
     55 H55       -14.4288    0.0253   57.4978 H       1  ZINC001284642199    0.0600
     56 H56       -14.7853   -3.8717   55.7684 H       1  ZINC001284642199    0.0500
     57 H57       -16.2429   -2.8968   56.0738 H       1  ZINC001284642199    0.0500
     58 H58       -15.1125   -2.4268   54.7817 H       1  ZINC001284642199    0.0600
     59 H59        -7.7884   -2.0337   50.9390 H       1  ZINC001284642199    0.1700
@<TRIPOS>BOND
     1     1     2    1
     2     1    29    1
     3     1    30    1
     4     1    31    1
     5     2    28   ar
     6     2     3   ar
     7     3     4   ar
     8     3    32    1
     9     4     5   ar
    10     5     6    1
    11     5    27   ar
    12     6     7    1
    13     6    33    1
    14     6    34    1
    15     7     8    1
    16     7    35    1
    17     8     9    1
    18     8    36    1
    19     8    37    1
    20     9    10    1
    21     9    11    1
    22     9    23    1
    23    11    12   am
    24    11    38    1
    25    12    13    2
    26    12    14    1
    27    14    15    1
    28    14    22    1
    29    14    16    1
    30    16    17    1
    31    16    39    1
    32    16    40    1
    33    17    18    1
    34    17    41    1
    35    17    42    1
    36    18    19    1
    37    18    20    1
    38    18    21    1
    39    20    43    1
    40    20    44    1
    41    20    45    1
    42    21    22    1
    43    21    46    1
    44    21    47    1
    45    22    48    1
    46    22    49    1
    47    23    24    1
    48    23    25    1
    49    23    26    1
    50    24    50    1
    51    24    51    1
    52    24    52    1
    53    25    53    1
    54    25    54    1
    55    25    55    1
    56    26    56    1
    57    26    57    1
    58    26    58    1
    59    27    28   ar
    60    28    59    1
@<TRIPOS>SUBSTRUCTURE
     1 ZINC001284642199        1 TEMP              0 ****  ****    0 ROOT


##########                                Name:    ZINC000182044395
##########                DOCK_Rotatable_Bonds:                   8
##########                         Heavy_Atoms:                  28
##########                    Molecular_Weight:             398.889
##########                DOCK_Rotatable_Bonds:                   8
##########                       Formal_Charge:          -0.0399999
##########                     HBond_Acceptors:                   6
##########                        HBond_Donors:                   2
##########                         Heavy_Atoms:                  28
##########                          Grid_Score:          -31.398020
##########                     Grid_vdw_energy:          -31.402241
##########                      Grid_es_energy:            0.004221
##########           Internal_energy_repulsive:           15.437428

@<TRIPOS>MOLECULE
ZINC000182044395
 51 53 1 0 0
SMALL
USER_CHARGES


@<TRIPOS>ATOM
      1 C1         -8.1440   -1.0847   59.9946 C.3     1  ZINC000182044395   -0.1800
      2 C2         -8.9619   -0.0645   59.2002 C.3     1  ZINC000182044395    0.0800
      3 N3         -9.9480   -0.7657   58.3743 N.pl3   1  ZINC000182044395   -0.4800
      4 C4         -9.6838   -0.9445   57.0735 C.2     1  ZINC000182044395    0.2500
      5 C5        -10.5591   -1.5940   56.2279 C.2     1  ZINC000182044395   -0.3500
      6 C6        -10.2315   -1.7706   54.8044 C.2     1  ZINC000182044395    0.5900
      7 O7        -10.0643   -2.8876   54.3527 O.2     1  ZINC000182044395   -0.5600
      8 N8        -10.1165   -0.6946   54.0009 N.am    1  ZINC000182044395   -0.7200
      9 C9         -9.7903   -0.8704   52.5835 C.3     1  ZINC000182044395    0.1100
     10 H10        -9.3731   -1.8652   52.4274 H       1  ZINC000182044395    0.0900
     11 C11       -11.0600   -0.7124   51.7445 C.3     1  ZINC000182044395   -0.1600
     12 C12        -8.7656    0.1845   52.1615 C.3     1  ZINC000182044395    0.1100
     13 H13        -8.5825    0.1048   51.0899 H       1  ZINC000182044395    0.1100
     14 O14        -9.2707    1.4867   52.4629 O.3     1  ZINC000182044395   -0.5500
     15 C15        -7.4569   -0.0433   52.9207 C.3     1  ZINC000182044395   -0.1100
     16 C16        -6.4237    0.9472   52.4492 C.ar    1  ZINC000182044395   -0.0800
     17 C17        -6.2672    2.1507   53.1112 C.ar    1  ZINC000182044395   -0.1000
     18 C18        -5.3197    3.0594   52.6785 C.ar    1  ZINC000182044395   -0.1200
     19 C19        -4.5281    2.7644   51.5843 C.ar    1  ZINC000182044395   -0.1200
     20 C20        -4.6878    1.5630   50.9194 C.ar    1  ZINC000182044395   -0.1200
     21 C21        -5.6327    0.6525   51.3546 C.ar    1  ZINC000182044395   -0.1200
     22 C22       -11.8284   -2.1019   56.7717 C.2     1  ZINC000182044395    0.4400
     23 O23       -12.6370   -2.6777   56.0649 O.2     1  ZINC000182044395   -0.4900
     24 C24       -12.0782   -1.8894   58.2097 C.ar    1  ZINC000182044395   -0.1800
     25 C25       -13.2516   -2.3415   58.8125 C.ar    1  ZINC000182044395   -0.0200
     26 C26       -13.4550   -2.1199   60.1579 C.ar    1  ZINC000182044395   -0.0700
     27 Cl27      -14.9135   -2.6792   60.9155 Cl      1  ZINC000182044395   -0.0500
     28 C28       -12.4978   -1.4517   60.9097 C.ar    1  ZINC000182044395   -0.0500
     29 C29       -11.3341   -1.0005   60.3264 C.ar    1  ZINC000182044395   -0.1600
     30 C30       -11.1082   -1.2130   58.9690 C.ar    1  ZINC000182044395    0.1900
     31 H31        -7.6300   -1.7545   59.3050 H       1  ZINC000182044395    0.0700
     32 H32        -7.4102   -0.5630   60.6091 H       1  ZINC000182044395    0.0800
     33 H33        -8.8089   -1.6636   60.6355 H       1  ZINC000182044395    0.0700
     34 H34        -8.2969    0.5144   58.5593 H       1  ZINC000182044395    0.1000
     35 H35        -9.4758    0.6052   59.8898 H       1  ZINC000182044395    0.1100
     36 H36        -8.7541   -0.5678   56.6731 H       1  ZINC000182044395    0.1800
     37 H37       -10.2499    0.1961   54.3610 H       1  ZINC000182044395    0.4100
     38 H38       -11.7900   -1.4639   52.0452 H       1  ZINC000182044395    0.0600
     39 H39       -11.4772    0.2824   51.9006 H       1  ZINC000182044395    0.0600
     40 H40       -10.8172   -0.8431   50.6899 H       1  ZINC000182044395    0.0600
     41 H41        -9.4609    1.6275   53.4005 H       1  ZINC000182044395    0.3700
     42 H42        -7.1005   -1.0565   52.7348 H       1  ZINC000182044395    0.0800
     43 H43        -7.6284    0.0912   53.9888 H       1  ZINC000182044395    0.0800
     44 H44        -6.8854    2.3810   53.9662 H       1  ZINC000182044395    0.1200
     45 H45        -5.1978    3.9998   53.1954 H       1  ZINC000182044395    0.1200
     46 H46        -3.7878    3.4744   51.2462 H       1  ZINC000182044395    0.1200
     47 H47        -4.0724    1.3344   50.0619 H       1  ZINC000182044395    0.1200
     48 H48        -5.7551   -0.2876   50.8373 H       1  ZINC000182044395    0.1200
     49 H49       -13.9966   -2.8620   58.2289 H       1  ZINC000182044395    0.1500
     50 H50       -12.6671   -1.2842   61.9631 H       1  ZINC000182044395    0.1500
     51 H51       -10.5971   -0.4823   60.9219 H       1  ZINC000182044395    0.1500
@<TRIPOS>BOND
     1     1     2    1
     2     1    31    1
     3     1    32    1
     4     1    33    1
     5     2     3    1
     6     2    34    1
     7     2    35    1
     8     3    30    1
     9     3     4    1
    10     4     5    2
    11     4    36    1
    12     5     6    1
    13     5    22    1
    14     6     7    2
    15     6     8   am
    16     8     9    1
    17     8    37    1
    18     9    10    1
    19     9    11    1
    20     9    12    1
    21    11    38    1
    22    11    39    1
    23    11    40    1
    24    12    13    1
    25    12    14    1
    26    12    15    1
    27    14    41    1
    28    15    16    1
    29    15    42    1
    30    15    43    1
    31    16    21   ar
    32    16    17   ar
    33    17    18   ar
    34    17    44    1
    35    18    19   ar
    36    18    45    1
    37    19    20   ar
    38    19    46    1
    39    20    21   ar
    40    20    47    1
    41    21    48    1
    42    22    23    2
    43    22    24    1
    44    24    30   ar
    45    24    25   ar
    46    25    26   ar
    47    25    49    1
    48    26    27    1
    49    26    28   ar
    50    28    29   ar
    51    28    50    1
    52    29    30   ar
    53    29    51    1
@<TRIPOS>SUBSTRUCTURE
     1 ZINC000182044395        1 TEMP              0 ****  ****    0 ROOT


##########                                Name:    ZINC000673213454
##########                DOCK_Rotatable_Bonds:                   7
##########                         Heavy_Atoms:                  26
##########                    Molecular_Weight:             360.453
##########                DOCK_Rotatable_Bonds:                   7
##########                       Formal_Charge:          -0.0100001
##########                     HBond_Acceptors:                   6
##########                        HBond_Donors:                   1
##########                         Heavy_Atoms:                  26
##########                          Grid_Score:          -31.358095
##########                     Grid_vdw_energy:          -30.207788
##########                      Grid_es_energy:           -1.150306
##########           Internal_energy_repulsive:           24.395193

@<TRIPOS>MOLECULE
ZINC000673213454
 54 56 1 0 0
SMALL
USER_CHARGES


@<TRIPOS>ATOM
      1 C1        -10.6340   -1.1738   53.9898 C.3     1  ZINC000673213454   -0.1700
      2 C2        -10.0143    0.1070   54.5525 C.3     1  ZINC000673213454    0.1400
      3 H3        -10.8061    0.7762   54.8890 H       1  ZINC000673213454    0.0900
      4 C4         -9.1920    0.7973   53.4625 C.3     1  ZINC000673213454   -0.1200
      5 C5         -7.9803   -0.0687   53.1123 C.3     1  ZINC000673213454   -0.1300
      6 H6         -7.7095   -0.7034   53.9559 H       1  ZINC000673213454    0.0800
      7 C7         -6.7823    0.8188   52.6953 C.3     1  ZINC000673213454   -0.1500
      8 C8         -6.1872    0.0229   51.5058 C.3     1  ZINC000673213454    0.0500
      9 O9         -7.3527   -0.5065   50.8379 O.3     1  ZINC000673213454   -0.3800
     10 C10        -8.2720   -0.9253   51.8648 C.3     1  ZINC000673213454    0.0500
     11 N11        -9.1442   -0.2273   55.6827 N.am    1  ZINC000673213454   -0.6900
     12 C12        -9.4556    0.2003   56.9224 C.2     1  ZINC000673213454    0.5100
     13 O13       -10.4575    0.8609   57.1026 O.2     1  ZINC000673213454   -0.5100
     14 C14        -8.5670   -0.1391   58.0751 C.2     1  ZINC000673213454    0.5000
     15 O15        -7.4962    0.4179   58.2004 O.2     1  ZINC000673213454   -0.5200
     16 N16        -8.9550   -1.0638   58.9756 N.am    1  ZINC000673213454   -0.5800
     17 C17        -8.0566   -1.3776   60.1026 C.3     1  ZINC000673213454    0.1100
     18 C18        -8.8459   -1.5274   61.4114 C.3     1  ZINC000673213454   -0.1700
     19 C19        -9.9319   -0.4724   61.4729 C.3     1  ZINC000673213454    0.0800
     20 O20       -11.1222   -1.0083   60.9099 O.3     1  ZINC000673213454   -0.3800
     21 C21       -11.3325   -0.9112   59.5493 C.3     1  ZINC000673213454    0.1500
     22 H22       -11.2858    0.1353   59.2483 H       1  ZINC000673213454    0.0600
     23 C23       -12.6896   -1.4716   59.2097 C.ar    1  ZINC000673213454   -0.0800
     24 C24       -13.4543   -2.0735   60.1914 C.ar    1  ZINC000673213454   -0.0900
     25 C25       -14.6992   -2.5874   59.8799 C.ar    1  ZINC000673213454   -0.1300
     26 C26       -15.1794   -2.4992   58.5867 C.ar    1  ZINC000673213454   -0.1200
     27 C27       -14.4152   -1.8965   57.6051 C.ar    1  ZINC000673213454   -0.1300
     28 C28       -13.1721   -1.3787   57.9176 C.ar    1  ZINC000673213454   -0.0900
     29 C29       -10.2434   -1.7089   58.8029 C.3     1  ZINC000673213454    0.0700
     30 H30        -9.8422   -1.8430   53.6533 H       1  ZINC000673213454    0.0600
     31 H31       -11.2198   -1.6656   54.7663 H       1  ZINC000673213454    0.0600
     32 H32       -11.2813   -0.9251   53.1488 H       1  ZINC000673213454    0.0700
     33 H33        -9.8089    0.9352   52.5745 H       1  ZINC000673213454    0.0800
     34 H34        -8.8525    1.7682   53.8234 H       1  ZINC000673213454    0.0900
     35 H35        -7.1212    1.8036   52.3737 H       1  ZINC000673213454    0.0800
     36 H36        -6.0599    0.9034   53.5070 H       1  ZINC000673213454    0.0800
     37 H37        -5.6313    0.6843   50.8413 H       1  ZINC000673213454    0.0900
     38 H38        -5.5504   -0.7855   51.8651 H       1  ZINC000673213454    0.0600
     39 H39        -8.1187   -1.9802   52.0919 H       1  ZINC000673213454    0.0600
     40 H40        -9.2974   -0.7606   51.5339 H       1  ZINC000673213454    0.0900
     41 H41        -8.3440   -0.7562   55.5390 H       1  ZINC000673213454    0.4100
     42 H42        -7.5314   -2.3094   59.8928 H       1  ZINC000673213454    0.0800
     43 H43        -7.3280   -0.5745   60.2138 H       1  ZINC000673213454    0.0900
     44 H44        -9.2992   -2.5178   61.4506 H       1  ZINC000673213454    0.0800
     45 H45        -8.1711   -1.4035   62.2584 H       1  ZINC000673213454    0.0900
     46 H46       -10.1121   -0.1935   62.5112 H       1  ZINC000673213454    0.1000
     47 H47        -9.6219    0.4049   60.9050 H       1  ZINC000673213454    0.0500
     48 H48       -13.0791   -2.1424   61.2018 H       1  ZINC000673213454    0.1300
     49 H49       -15.2964   -3.0584   60.6468 H       1  ZINC000673213454    0.1200
     50 H50       -16.1517   -2.9014   58.3430 H       1  ZINC000673213454    0.1200
     51 H51       -14.7902   -1.8278   56.5946 H       1  ZINC000673213454    0.1200
     52 H52       -12.5750   -0.9078   57.1507 H       1  ZINC000673213454    0.1300
     53 H53       -10.4870   -1.7501   57.7413 H       1  ZINC000673213454    0.1200
     54 H54       -10.1958   -2.7213   59.2041 H       1  ZINC000673213454    0.0800
@<TRIPOS>BOND
     1     1     2    1
     2     1    30    1
     3     1    31    1
     4     1    32    1
     5     2     3    1
     6     2     4    1
     7     2    11    1
     8     4     5    1
     9     4    33    1
    10     4    34    1
    11     5     6    1
    12     5    10    1
    13     5     7    1
    14     7     8    1
    15     7    35    1
    16     7    36    1
    17     8     9    1
    18     8    37    1
    19     8    38    1
    20     9    10    1
    21    10    39    1
    22    10    40    1
    23    11    12   am
    24    11    41    1
    25    12    13    2
    26    12    14    1
    27    14    15    2
    28    14    16   am
    29    16    29    1
    30    16    17    1
    31    17    18    1
    32    17    42    1
    33    17    43    1
    34    18    19    1
    35    18    44    1
    36    18    45    1
    37    19    20    1
    38    19    46    1
    39    19    47    1
    40    20    21    1
    41    21    22    1
    42    21    23    1
    43    21    29    1
    44    23    28   ar
    45    23    24   ar
    46    24    25   ar
    47    24    48    1
    48    25    26   ar
    49    25    49    1
    50    26    27   ar
    51    26    50    1
    52    27    28   ar
    53    27    51    1
    54    28    52    1
    55    29    53    1
    56    29    54    1
@<TRIPOS>SUBSTRUCTURE
     1 ZINC000673213454        1 TEMP              0 ****  ****    0 ROOT


##########                                Name:    ZINC000545381384
##########                DOCK_Rotatable_Bonds:                   6
##########                         Heavy_Atoms:                  30
##########                    Molecular_Weight:             405.543
##########                DOCK_Rotatable_Bonds:                   6
##########                       Formal_Charge:                0.05
##########                     HBond_Acceptors:                   6
##########                        HBond_Donors:                   1
##########                         Heavy_Atoms:                  30
##########                          Grid_Score:          -31.346029
##########                     Grid_vdw_energy:          -30.198969
##########                      Grid_es_energy:           -1.147061
##########           Internal_energy_repulsive:           21.492081

@<TRIPOS>MOLECULE
ZINC000545381384
 61 64 1 0 0
SMALL
USER_CHARGES


@<TRIPOS>ATOM
      1 C1        -13.8861   -3.5606   57.2549 C.3     1  ZINC000545381384   -0.2000
      2 C2        -12.5800   -3.3822   58.0315 C.3     1  ZINC000545381384    0.0500
      3 N3        -11.6660   -2.5270   57.2626 N.3     1  ZINC000545381384   -0.5300
      4 C4        -10.9165   -3.3141   56.2707 C.3     1  ZINC000545381384    0.0500
      5 C5        -10.2809   -2.3532   55.2663 C.3     1  ZINC000545381384   -0.0700
      6 C6         -9.5197   -1.2733   55.9971 C.ar    1  ZINC000545381384    0.1800
      7 C7         -9.7426   -1.0251   57.3464 C.ar    1  ZINC000545381384   -0.0800
      8 C8        -10.7401   -1.8161   58.1501 C.3     1  ZINC000545381384    0.0900
      9 C9         -9.0267   -0.0183   57.9894 C.ar    1  ZINC000545381384   -0.0700
     10 C10        -9.2438    0.2719   59.4228 C.2     1  ZINC000545381384    0.5800
     11 O11        -9.5959    1.3818   59.7717 O.2     1  ZINC000545381384   -0.4800
     12 N12        -9.0514   -0.6943   60.3425 N.am    1  ZINC000545381384   -0.6400
     13 C13        -9.2576   -0.4214   61.6932 C.2     1  ZINC000545381384    0.3000
     14 C14        -8.3157   -0.4602   62.6757 C.2     1  ZINC000545381384   -0.2700
     15 C15        -8.9381   -0.1207   63.8798 C.2     1  ZINC000545381384    0.1000
     16 C16        -8.2664   -0.0385   65.2262 C.3     1  ZINC000545381384   -0.0300
     17 C17        -7.7485    1.3834   65.4518 C.3     1  ZINC000545381384   -0.0600
     18 C18        -6.7613    1.7487   64.3415 C.3     1  ZINC000545381384   -0.1500
     19 C19        -8.9234    2.3632   65.4323 C.3     1  ZINC000545381384   -0.1400
     20 C20        -7.0428    1.4601   66.8072 C.3     1  ZINC000545381384   -0.1400
     21 N21       -10.2027    0.1141   63.6402 N.2     1  ZINC000545381384   -0.2700
     22 N22       -10.4337   -0.0623   62.2699 N.pl3   1  ZINC000545381384   -0.3900
     23 C23       -11.7170    0.1025   61.5828 C.3     1  ZINC000545381384    0.1000
     24 C24        -8.0844    0.7195   57.2321 C.ar    1  ZINC000545381384   -0.0700
     25 C25        -7.3243    1.7464   57.8061 C.ar    1  ZINC000545381384   -0.1100
     26 C26        -6.4277    2.4297   57.0405 C.ar    1  ZINC000545381384   -0.1000
     27 C27        -6.2572    2.1198   55.6927 C.ar    1  ZINC000545381384   -0.1000
     28 C28        -6.9798    1.1291   55.1032 C.ar    1  ZINC000545381384   -0.0900
     29 C29        -7.9152    0.4011   55.8618 C.ar    1  ZINC000545381384    0.1400
     30 N30        -8.6379   -0.5743   55.3125 N.ar    1  ZINC000545381384   -0.4600
     31 H31       -14.3318   -2.5842   57.0643 H       1  ZINC000545381384    0.0600
     32 H32       -13.6802   -4.0573   56.3068 H       1  ZINC000545381384    0.0600
     33 H33       -14.5771   -4.1672   57.8404 H       1  ZINC000545381384    0.0700
     34 H34       -12.7904   -2.9160   58.9941 H       1  ZINC000545381384    0.0900
     35 H35       -12.1173   -4.3559   58.1928 H       1  ZINC000545381384    0.0800
     36 H36       -10.1369   -3.8878   56.7721 H       1  ZINC000545381384    0.0500
     37 H37       -11.5954   -3.9903   55.7513 H       1  ZINC000545381384    0.0900
     38 H38        -9.5971   -2.9046   54.6210 H       1  ZINC000545381384    0.1000
     39 H39       -11.0619   -1.8971   54.6579 H       1  ZINC000545381384    0.1000
     40 H40       -11.3042   -1.1388   58.7912 H       1  ZINC000545381384    0.0900
     41 H41       -10.2104   -2.5382   58.7715 H       1  ZINC000545381384    0.0700
     42 H42        -8.7693   -1.5797   60.0642 H       1  ZINC000545381384    0.4100
     43 H43        -7.2728   -0.7094   62.5472 H       1  ZINC000545381384    0.1700
     44 H44        -8.9842   -0.2917   66.0064 H       1  ZINC000545381384    0.0800
     45 H45        -7.4317   -0.7387   65.2592 H       1  ZINC000545381384    0.0800
     46 H46        -7.2639    1.6941   63.3759 H       1  ZINC000545381384    0.0500
     47 H47        -6.3923    2.7618   64.5022 H       1  ZINC000545381384    0.0500
     48 H48        -5.9242    1.0507   64.3553 H       1  ZINC000545381384    0.0800
     49 H49        -9.6267    2.1030   66.2233 H       1  ZINC000545381384    0.0600
     50 H50        -8.5544    3.3762   65.5930 H       1  ZINC000545381384    0.0600
     51 H51        -9.4261    2.3085   64.4667 H       1  ZINC000545381384    0.0600
     52 H52        -6.2058    0.7621   66.8210 H       1  ZINC000545381384    0.0500
     53 H53        -6.6739    2.4731   66.9679 H       1  ZINC000545381384    0.0500
     54 H54        -7.7462    1.1998   67.5982 H       1  ZINC000545381384    0.0500
     55 H55       -11.8204    1.1350   61.2487 H       1  ZINC000545381384    0.0800
     56 H56       -11.7560   -0.5637   60.7210 H       1  ZINC000545381384    0.0800
     57 H57       -12.5296   -0.1410   62.2672 H       1  ZINC000545381384    0.1000
     58 H58        -7.4485    1.9958   58.8495 H       1  ZINC000545381384    0.1300
     59 H59        -5.8420    3.2214   57.4839 H       1  ZINC000545381384    0.1300
     60 H60        -5.5401    2.6752   55.1064 H       1  ZINC000545381384    0.1400
     61 H61        -6.8361    0.9024   54.0571 H       1  ZINC000545381384    0.1400
@<TRIPOS>BOND
     1     1     2    1
     2     1    31    1
     3     1    32    1
     4     1    33    1
     5     2     3    1
     6     2    34    1
     7     2    35    1
     8     3     8    1
     9     3     4    1
    10     4     5    1
    11     4    36    1
    12     4    37    1
    13     5     6    1
    14     5    38    1
    15     5    39    1
    16     6    30   ar
    17     6     7   ar
    18     7     8    1
    19     7     9   ar
    20     8    40    1
    21     8    41    1
    22     9    10    1
    23     9    24   ar
    24    10    11    2
    25    10    12   am
    26    12    13    1
    27    12    42    1
    28    13    22    1
    29    13    14    2
    30    14    15    1
    31    14    43    1
    32    15    16    1
    33    15    21    2
    34    16    17    1
    35    16    44    1
    36    16    45    1
    37    17    18    1
    38    17    19    1
    39    17    20    1
    40    18    46    1
    41    18    47    1
    42    18    48    1
    43    19    49    1
    44    19    50    1
    45    19    51    1
    46    20    52    1
    47    20    53    1
    48    20    54    1
    49    21    22    1
    50    22    23    1
    51    23    55    1
    52    23    56    1
    53    23    57    1
    54    24    29   ar
    55    24    25   ar
    56    25    26   ar
    57    25    58    1
    58    26    27   ar
    59    26    59    1
    60    27    28   ar
    61    27    60    1
    62    28    29   ar
    63    28    61    1
    64    29    30   ar
@<TRIPOS>SUBSTRUCTURE
     1 ZINC000545381384        1 TEMP              0 ****  ****    0 ROOT


##########                                Name:    ZINC000265786263
##########                DOCK_Rotatable_Bonds:                   7
##########                         Heavy_Atoms:                  28
##########                    Molecular_Weight:             386.451
##########                DOCK_Rotatable_Bonds:                   7
##########                       Formal_Charge:           0.0499992
##########                     HBond_Acceptors:                   8
##########                        HBond_Donors:                   2
##########                         Heavy_Atoms:                  28
##########                          Grid_Score:          -31.305771
##########                     Grid_vdw_energy:          -30.162832
##########                      Grid_es_energy:           -1.142938
##########           Internal_energy_repulsive:           22.394169

@<TRIPOS>MOLECULE
ZINC000265786263
 54 57 1 0 0
SMALL
USER_CHARGES


@<TRIPOS>ATOM
      1 C1        -16.9637   -2.3891   58.5111 C.3     1  ZINC000265786263   -0.1500
      2 C2        -15.5482   -2.8005   58.9213 C.3     1  ZINC000265786263    0.1600
      3 C3        -15.4202   -2.8362   60.4456 C.3     1  ZINC000265786263   -0.1600
      4 C4        -14.1293   -2.2904   61.0590 C.3     1  ZINC000265786263   -0.1600
      5 C5        -15.4317   -1.4979   61.1869 C.3     1  ZINC000265786263   -0.1600
      6 N6        -15.1987   -4.1072   58.3379 N.am    1  ZINC000265786263   -0.7100
      7 C7        -14.1373   -3.8999   57.5378 C.2     1  ZINC000265786263    0.7100
      8 O8        -13.5920   -4.7775   56.8978 O.2     1  ZINC000265786263   -0.5400
      9 N9        -13.7490   -2.6196   57.5253 N.am    1  ZINC000265786263   -0.5600
     10 C10       -12.6213   -2.1092   56.7417 C.3     1  ZINC000265786263    0.1000
     11 C11       -13.1415   -1.3621   55.5407 C.2     1  ZINC000265786263    0.5100
     12 O12       -14.3214   -1.4055   55.2638 O.2     1  ZINC000265786263   -0.5300
     13 N13       -12.2953   -0.6456   54.7744 N.am    1  ZINC000265786263   -0.6100
     14 C14       -10.8595   -0.5859   55.0879 C.3     1  ZINC000265786263    0.1100
     15 C15       -10.0699   -0.9327   53.8212 C.3     1  ZINC000265786263    0.0400
     16 N16       -10.5029   -0.0582   52.7232 N.3     1  ZINC000265786263   -0.5300
     17 C17        -9.6530   -0.2400   51.5389 C.3     1  ZINC000265786263    0.0900
     18 C18        -8.2767    0.3059   51.8197 C.ar    1  ZINC000265786263   -0.0600
     19 C19        -7.1705   -0.2697   51.2229 C.ar    1  ZINC000265786263   -0.1300
     20 C20        -5.9062    0.2289   51.4784 C.ar    1  ZINC000265786263   -0.1000
     21 C21        -5.7457    1.3037   52.3310 C.ar    1  ZINC000265786263   -0.1400
     22 C22        -6.8545    1.8831   52.9312 C.ar    1  ZINC000265786263    0.1100
     23 O23        -6.6992    2.9409   53.7702 O.3     1  ZINC000265786263   -0.5000
     24 C24        -8.1221    1.3847   52.6689 C.ar    1  ZINC000265786263   -0.1200
     25 C25       -11.9178   -0.2765   52.3944 C.3     1  ZINC000265786263    0.0400
     26 C26       -12.7822    0.0923   53.5990 C.3     1  ZINC000265786263    0.1200
     27 C27       -14.5239   -1.8573   58.3220 C.2     1  ZINC000265786263    0.5400
     28 O28       -14.4233   -0.6652   58.5180 O.2     1  ZINC000265786263   -0.4500
     29 H29       -17.0463   -2.4059   57.4244 H       1  ZINC000265786263    0.0700
     30 H30       -17.6834   -3.0856   58.9411 H       1  ZINC000265786263    0.0800
     31 H31       -17.1695   -1.3827   58.8757 H       1  ZINC000265786263    0.0900
     32 H32       -15.8906   -3.6878   60.9370 H       1  ZINC000265786263    0.1100
     33 H33       -13.7500   -2.7831   61.9544 H       1  ZINC000265786263    0.1000
     34 H34       -13.3710   -1.9059   60.3769 H       1  ZINC000265786263    0.1100
     35 H35       -15.5304   -0.5919   60.5889 H       1  ZINC000265786263    0.1000
     36 H36       -15.9093   -1.4692   62.1664 H       1  ZINC000265786263    0.1000
     37 H37       -15.6462   -4.9524   58.4996 H       1  ZINC000265786263    0.4400
     38 H38       -12.0255   -1.4361   57.3583 H       1  ZINC000265786263    0.1300
     39 H39       -12.0019   -2.9428   56.4108 H       1  ZINC000265786263    0.1300
     40 H40       -10.5984    0.4194   55.4183 H       1  ZINC000265786263    0.0900
     41 H41       -10.6261   -1.3047   55.8733 H       1  ZINC000265786263    0.0900
     42 H42        -9.0055   -0.7864   54.0047 H       1  ZINC000265786263    0.0900
     43 H43       -10.2533   -1.9729   53.5517 H       1  ZINC000265786263    0.0400
     44 H44        -9.5816   -1.3017   51.3026 H       1  ZINC000265786263    0.0900
     45 H45       -10.0894    0.2919   50.6935 H       1  ZINC000265786263    0.0500
     46 H46        -7.2939   -1.1103   50.5561 H       1  ZINC000265786263    0.1200
     47 H47        -5.0436   -0.2226   51.0112 H       1  ZINC000265786263    0.1300
     48 H48        -4.7581    1.6924   52.5305 H       1  ZINC000265786263    0.1300
     49 H49        -5.7781    3.2009   53.9090 H       1  ZINC000265786263    0.3900
     50 H50        -8.9866    1.8340   53.1349 H       1  ZINC000265786263    0.1300
     51 H51       -12.1936    0.3458   51.5430 H       1  ZINC000265786263    0.1000
     52 H52       -12.0754   -1.3257   52.1447 H       1  ZINC000265786263    0.0400
     53 H53       -13.8201   -0.1755   53.4007 H       1  ZINC000265786263    0.1000
     54 H54       -12.7074    1.1630   53.7893 H       1  ZINC000265786263    0.0800
@<TRIPOS>BOND
     1     1     2    1
     2     1    29    1
     3     1    30    1
     4     1    31    1
     5     2    27    1
     6     2     3    1
     7     2     6    1
     8     3     5    1
     9     3     4    1
    10     3    32    1
    11     4     5    1
    12     4    33    1
    13     4    34    1
    14     5    35    1
    15     5    36    1
    16     6     7   am
    17     6    37    1
    18     7     8    2
    19     7     9   am
    20     9    10    1
    21     9    27   am
    22    10    11    1
    23    10    38    1
    24    10    39    1
    25    11    12    2
    26    11    13   am
    27    13    26    1
    28    13    14    1
    29    14    15    1
    30    14    40    1
    31    14    41    1
    32    15    16    1
    33    15    42    1
    34    15    43    1
    35    16    17    1
    36    16    25    1
    37    17    18    1
    38    17    44    1
    39    17    45    1
    40    18    24   ar
    41    18    19   ar
    42    19    20   ar
    43    19    46    1
    44    20    21   ar
    45    20    47    1
    46    21    22   ar
    47    21    48    1
    48    22    23    1
    49    22    24   ar
    50    23    49    1
    51    24    50    1
    52    25    26    1
    53    25    51    1
    54    25    52    1
    55    26    53    1
    56    26    54    1
    57    27    28    2
@<TRIPOS>SUBSTRUCTURE
     1 ZINC000265786263        1 TEMP              0 ****  ****    0 ROOT


##########                                Name:    ZINC001085711660
##########                DOCK_Rotatable_Bonds:                   8
##########                         Heavy_Atoms:                  25
##########                    Molecular_Weight:             347.414
##########                DOCK_Rotatable_Bonds:                   8
##########                       Formal_Charge:         -0.00999993
##########                     HBond_Acceptors:                   7
##########                        HBond_Donors:                   0
##########                         Heavy_Atoms:                  25
##########                          Grid_Score:          -31.293655
##########                     Grid_vdw_energy:          -29.737740
##########                      Grid_es_energy:           -1.555916
##########           Internal_energy_repulsive:           13.438560

@<TRIPOS>MOLECULE
ZINC001085711660
 50 52 1 0 0
SMALL
USER_CHARGES


@<TRIPOS>ATOM
      1 C1         -8.2138   -0.2209   64.2757 C.3     1  ZINC001085711660    0.0300
      2 O2         -8.9738   -0.7452   63.1852 O.3     1  ZINC001085711660   -0.3800
      3 C3         -8.1991   -1.0220   62.0167 C.3     1  ZINC001085711660    0.1400
      4 C4         -9.0918   -1.5942   60.9459 C.2     1  ZINC001085711660    0.0100
      5 C5        -10.2465   -2.2631   61.1586 C.2     1  ZINC001085711660   -0.1900
      6 C6        -10.7562   -2.6182   59.8998 C.2     1  ZINC001085711660   -0.1200
      7 C7         -9.8755   -2.1421   58.9713 C.2     1  ZINC001085711660   -0.0700
      8 C8         -9.9993   -2.2792   57.5165 C.2     1  ZINC001085711660    0.6000
      9 O9        -10.2648   -3.3616   57.0276 O.2     1  ZINC001085711660   -0.5200
     10 N10        -9.8190   -1.2064   56.7207 N.am    1  ZINC001085711660   -0.6000
     11 C11        -9.4992    0.0966   57.3091 C.3     1  ZINC001085711660    0.0700
     12 C12        -9.9426   -1.3435   55.2673 C.3     1  ZINC001085711660    0.1300
     13 C13       -11.1058   -0.4822   54.7711 C.3     1  ZINC001085711660    0.0000
     14 H14       -10.9287    0.5846   54.9082 H       1  ZINC001085711660    0.1000
     15 C15       -12.4746   -0.9464   55.2885 C.3     1  ZINC001085711660   -0.1400
     16 C16       -12.9398   -0.5871   53.8704 C.3     1  ZINC001085711660    0.0100
     17 N17       -11.5585   -0.8328   53.4120 N.3     1  ZINC001085711660   -0.4500
     18 C18       -11.1388    0.1830   52.4373 C.3     1  ZINC001085711660    0.1500
     19 H19       -11.1461    1.1651   52.9100 H       1  ZINC001085711660    0.1000
     20 C20       -12.1046    0.1809   51.2506 C.3     1  ZINC001085711660   -0.1900
     21 C21        -9.7468   -0.1308   51.9526 C.2     1  ZINC001085711660    0.2000
     22 N22        -9.4176   -1.1325   51.1878 N.2     1  ZINC001085711660   -0.4700
     23 C23        -8.0920   -1.0881   50.9659 C.2     1  ZINC001085711660   -0.0400
     24 C24        -7.6045   -0.0212   51.6205 C.2     1  ZINC001085711660   -0.0500
     25 C25        -6.1657    0.4254   51.6583 C.3     1  ZINC001085711660   -0.0700
     26 O26        -8.6449    0.5778   52.2327 O.3     1  ZINC001085711660   -0.2000
     27 O27        -8.8743   -1.5188   59.6265 O.3     1  ZINC001085711660   -0.1500
     28 H28        -7.4457   -0.9393   64.5619 H       1  ZINC001085711660    0.0500
     29 H29        -7.7422    0.7143   63.9735 H       1  ZINC001085711660    0.0500
     30 H30        -8.8738   -0.0375   65.1236 H       1  ZINC001085711660    0.0900
     31 H31        -7.7439   -0.0998   61.6557 H       1  ZINC001085711660    0.0900
     32 H32        -7.4176   -1.7415   62.2609 H       1  ZINC001085711660    0.0700
     33 H33       -10.6933   -2.4830   62.1170 H       1  ZINC001085711660    0.1600
     34 H34       -11.6681   -3.1626   59.7038 H       1  ZINC001085711660    0.1600
     35 H35        -8.4264    0.1596   57.4913 H       1  ZINC001085711660    0.0600
     36 H36        -9.7982    0.8884   56.6224 H       1  ZINC001085711660    0.0900
     37 H37       -10.0352    0.2111   58.2512 H       1  ZINC001085711660    0.0800
     38 H38        -9.0186   -1.0151   54.7915 H       1  ZINC001085711660    0.0900
     39 H39       -10.1301   -2.3872   55.0154 H       1  ZINC001085711660    0.0900
     40 H40       -12.5270   -2.0103   55.5194 H       1  ZINC001085711660    0.1000
     41 H41       -12.8946   -0.3130   56.0699 H       1  ZINC001085711660    0.0800
     42 H42       -13.6653   -1.2897   53.4604 H       1  ZINC001085711660    0.0900
     43 H43       -13.2526    0.4517   53.7661 H       1  ZINC001085711660    0.0800
     44 H44       -12.1801   -0.8281   50.8454 H       1  ZINC001085711660    0.0800
     45 H45       -13.0881    0.5140   51.5819 H       1  ZINC001085711660    0.0800
     46 H46       -11.7334    0.8554   50.4790 H       1  ZINC001085711660    0.0700
     47 H47        -7.5220   -1.7849   50.3692 H       1  ZINC001085711660    0.1800
     48 H48        -5.9778    1.1156   50.8358 H       1  ZINC001085711660    0.0800
     49 H49        -5.9653    0.9260   52.6056 H       1  ZINC001085711660    0.0800
     50 H50        -5.5133   -0.4422   51.5608 H       1  ZINC001085711660    0.0900
@<TRIPOS>BOND
     1     1     2    1
     2     1    28    1
     3     1    29    1
     4     1    30    1
     5     2     3    1
     6     3     4    1
     7     3    31    1
     8     3    32    1
     9     4    27    1
    10     4     5    2
    11     5     6    1
    12     5    33    1
    13     6     7    2
    14     6    34    1
    15     7     8    1
    16     7    27    1
    17     8     9    2
    18     8    10   am
    19    10    11    1
    20    10    12    1
    21    11    35    1
    22    11    36    1
    23    11    37    1
    24    12    13    1
    25    12    38    1
    26    12    39    1
    27    13    14    1
    28    13    17    1
    29    13    15    1
    30    15    16    1
    31    15    40    1
    32    15    41    1
    33    16    17    1
    34    16    42    1
    35    16    43    1
    36    17    18    1
    37    18    19    1
    38    18    20    1
    39    18    21    1
    40    20    44    1
    41    20    45    1
    42    20    46    1
    43    21    26    1
    44    21    22    2
    45    22    23    1
    46    23    24    2
    47    23    47    1
    48    24    25    1
    49    24    26    1
    50    25    48    1
    51    25    49    1
    52    25    50    1
@<TRIPOS>SUBSTRUCTURE
     1 ZINC001085711660        1 TEMP              0 ****  ****    0 ROOT


##########                                Name:    ZINC000498646479
##########                DOCK_Rotatable_Bonds:                   7
##########                         Heavy_Atoms:                  29
##########                    Molecular_Weight:              407.58
##########                DOCK_Rotatable_Bonds:                   7
##########                       Formal_Charge:          -0.0199997
##########                     HBond_Acceptors:                   5
##########                        HBond_Donors:                   0
##########                         Heavy_Atoms:                  29
##########                          Grid_Score:          -31.282843
##########                     Grid_vdw_energy:          -30.362722
##########                      Grid_es_energy:           -0.920120
##########           Internal_energy_repulsive:           29.133812

@<TRIPOS>MOLECULE
ZINC000498646479
 58 61 1 0 0
SMALL
USER_CHARGES


@<TRIPOS>ATOM
      1 C1         -7.7018   -0.8831   50.9259 C.3     1  ZINC000498646479   -0.1500
      2 C2         -6.3783   -0.3367   51.4649 C.3     1  ZINC000498646479   -0.0600
      3 C3         -6.6450    0.8831   52.3089 C.2     1  ZINC000498646479   -0.1700
      4 C4         -5.7795    1.8756   52.5209 C.2     1  ZINC000498646479   -0.1400
      5 C5         -6.2477    2.8943   53.3328 C.2     1  ZINC000498646479   -0.1300
      6 C6         -7.4935    2.7290   53.7800 C.2     1  ZINC000498646479   -0.1900
      7 C7         -8.2301    3.6919   54.6750 C.3     1  ZINC000498646479    0.1300
      8 N8         -8.3736    3.1041   56.0137 N.3     1  ZINC000498646479   -0.5300
      9 C9         -7.1739    2.3424   56.3856 C.3     1  ZINC000498646479    0.0400
     10 C10        -7.2865    1.9005   57.8486 C.3     1  ZINC000498646479    0.1200
     11 N11        -8.5581    1.1822   58.0230 N.am    1  ZINC000498646479   -0.6100
     12 C12        -8.5918   -0.0336   58.6038 C.2     1  ZINC000498646479    0.5200
     13 O13        -7.5646   -0.5495   58.9905 O.2     1  ZINC000498646479   -0.5400
     14 C14        -9.9058   -0.7518   58.7725 C.3     1  ZINC000498646479   -0.1000
     15 H15       -10.6826   -0.0324   59.0315 H       1  ZINC000498646479    0.0900
     16 C16       -10.2757   -1.4527   57.4637 C.3     1  ZINC000498646479   -0.1500
     17 C17        -9.7797   -1.7903   59.8890 C.3     1  ZINC000498646479   -0.0600
     18 C18        -9.7125   -1.0895   61.2215 C.ar    1  ZINC000498646479   -0.1200
     19 C19       -10.8737   -0.5605   61.8132 C.ar    1  ZINC000498646479   -0.0200
     20 C20       -12.1334   -0.6562   61.2045 C.ar    1  ZINC000498646479   -0.1200
     21 C21       -13.2213   -0.1240   61.8278 C.ar    1  ZINC000498646479   -0.1000
     22 C22       -13.1018    0.5147   63.0609 C.ar    1  ZINC000498646479   -0.1200
     23 C23       -11.8946    0.6262   63.6810 C.ar    1  ZINC000498646479   -0.0900
     24 C24       -10.7507    0.0894   63.0692 C.ar    1  ZINC000498646479   -0.1100
     25 C25        -9.4801    0.1733   63.6604 C.ar    1  ZINC000498646479    0.1400
     26 N26        -8.4395   -0.3443   63.0502 N.ar    1  ZINC000498646479   -0.4800
     27 C27        -8.5270   -0.9608   61.8798 C.ar    1  ZINC000498646479    0.0800
     28 C28        -9.7920    1.8260   57.5472 C.3     1  ZINC000498646479    0.1100
     29 C29        -9.5806    2.2709   56.0962 C.3     1  ZINC000498646479    0.0400
     30 S30        -8.1478    1.2192   53.1585 S.3     1  ZINC000498646479    0.1300
     31 H31        -7.5090   -1.7654   50.3154 H       1  ZINC000498646479    0.0600
     32 H32        -8.3501   -1.1529   51.7597 H       1  ZINC000498646479    0.0600
     33 H33        -8.1894   -0.1206   50.3185 H       1  ZINC000498646479    0.0600
     34 H34        -5.8908   -1.0992   52.0722 H       1  ZINC000498646479    0.0800
     35 H35        -5.7301   -0.0670   50.6311 H       1  ZINC000498646479    0.0700
     36 H36        -4.7884    1.8837   52.0920 H       1  ZINC000498646479    0.1400
     37 H37        -5.6496    3.7573   53.5853 H       1  ZINC000498646479    0.1300
     38 H38        -7.6692    4.6238   54.7457 H       1  ZINC000498646479    0.0900
     39 H39        -9.2172    3.8926   54.2586 H       1  ZINC000498646479    0.0500
     40 H40        -7.0878    1.4641   55.7460 H       1  ZINC000498646479    0.0400
     41 H41        -6.2916    2.9705   56.2624 H       1  ZINC000498646479    0.1000
     42 H42        -6.4558    1.2399   58.0965 H       1  ZINC000498646479    0.1000
     43 H43        -7.2684    2.7758   58.4979 H       1  ZINC000498646479    0.0800
     44 H44       -11.2645   -1.9015   57.5587 H       1  ZINC000498646479    0.0700
     45 H45       -10.2833   -0.7254   56.6517 H       1  ZINC000498646479    0.0600
     46 H46        -9.5430   -2.2302   57.2481 H       1  ZINC000498646479    0.0700
     47 H47       -10.6459   -2.4517   59.8697 H       1  ZINC000498646479    0.0900
     48 H48        -8.8722   -2.3754   59.7401 H       1  ZINC000498646479    0.0800
     49 H49       -12.2402   -1.1479   60.2488 H       1  ZINC000498646479    0.1400
     50 H50       -14.1916   -0.1978   61.3593 H       1  ZINC000498646479    0.1300
     51 H51       -13.9810    0.9283   63.5322 H       1  ZINC000498646479    0.1300
     52 H52       -11.8176    1.1239   64.6362 H       1  ZINC000498646479    0.1300
     53 H53        -9.3590    0.6630   64.6153 H       1  ZINC000498646479    0.1600
     54 H54        -7.6314   -1.3650   61.4314 H       1  ZINC000498646479    0.1500
     55 H55       -10.6176    1.1161   57.5961 H       1  ZINC000498646479    0.0900
     56 H56       -10.0147    2.6941   58.1677 H       1  ZINC000498646479    0.0800
     57 H57       -10.4438    2.8471   55.7630 H       1  ZINC000498646479    0.0900
     58 H58        -9.4611    1.3935   55.4606 H       1  ZINC000498646479    0.0400
@<TRIPOS>BOND
     1     1     2    1
     2     1    31    1
     3     1    32    1
     4     1    33    1
     5     2     3    1
     6     2    34    1
     7     2    35    1
     8     3    30    1
     9     3     4    2
    10     4     5    1
    11     4    36    1
    12     5     6    2
    13     5    37    1
    14     6     7    1
    15     6    30    1
    16     7     8    1
    17     7    38    1
    18     7    39    1
    19     8    29    1
    20     8     9    1
    21     9    10    1
    22     9    40    1
    23     9    41    1
    24    10    11    1
    25    10    42    1
    26    10    43    1
    27    11    12   am
    28    11    28    1
    29    12    13    2
    30    12    14    1
    31    14    15    1
    32    14    16    1
    33    14    17    1
    34    16    44    1
    35    16    45    1
    36    16    46    1
    37    17    18    1
    38    17    47    1
    39    17    48    1
    40    18    27   ar
    41    18    19   ar
    42    19    24   ar
    43    19    20   ar
    44    20    21   ar
    45    20    49    1
    46    21    22   ar
    47    21    50    1
    48    22    23   ar
    49    22    51    1
    50    23    24   ar
    51    23    52    1
    52    24    25   ar
    53    25    26   ar
    54    25    53    1
    55    26    27   ar
    56    27    54    1
    57    28    29    1
    58    28    55    1
    59    28    56    1
    60    29    57    1
    61    29    58    1
@<TRIPOS>SUBSTRUCTURE
     1 ZINC000498646479        1 TEMP              0 ****  ****    0 ROOT


##########                                Name:    ZINC001461256440
##########                DOCK_Rotatable_Bonds:                  13
##########                         Heavy_Atoms:                  26
##########                    Molecular_Weight:             367.445
##########                DOCK_Rotatable_Bonds:                  13
##########                       Formal_Charge:        -6.37025e-07
##########                     HBond_Acceptors:                   8
##########                        HBond_Donors:                   1
##########                         Heavy_Atoms:                  26
##########                          Grid_Score:          -31.282307
##########                     Grid_vdw_energy:          -30.369886
##########                      Grid_es_energy:           -0.912421
##########           Internal_energy_repulsive:           37.883690

@<TRIPOS>MOLECULE
ZINC001461256440
 55 55 1 0 0
SMALL
USER_CHARGES


@<TRIPOS>ATOM
      1 C1          1.8087    2.5522   43.8877 C.3     1  ZINC001461256440   -0.1500
      2 C2          0.5134    3.2010   44.3801 C.3     1  ZINC001461256440    0.0600
      3 O3         -0.4904    2.1743   44.5960 O.3     1  ZINC001461256440   -0.3600
      4 C4         -1.6528    2.5640   45.1423 C.2     1  ZINC001461256440    0.4400
      5 O5         -1.9903    3.7225   45.0821 O.2     1  ZINC001461256440   -0.4800
      6 C6         -2.5369    1.5564   45.8311 C.3     1  ZINC001461256440    0.1400
      7 N7         -1.7527    0.8156   46.8223 N.pl3   1  ZINC001461256440   -0.3800
      8 N8         -0.7692   -0.1427   46.5462 N.2     1  ZINC001461256440   -0.2800
      9 C9         -0.2918   -0.5830   47.6822 C.2     1  ZINC001461256440    0.1000
     10 C10         0.7865   -1.6234   47.8422 C.3     1  ZINC001461256440   -0.0700
     11 C11        -0.9523    0.0775   48.7218 C.2     1  ZINC001461256440   -0.2700
     12 C12        -1.8463    0.9402   48.1659 C.2     1  ZINC001461256440    0.3100
     13 N13        -2.7082    1.7921   48.8565 N.am    1  ZINC001461256440   -0.6500
     14 C14        -2.4550    3.1150   48.9019 C.2     1  ZINC001461256440    0.5200
     15 O15        -1.4782    3.5651   48.3410 O.2     1  ZINC001461256440   -0.5000
     16 C16        -3.3853    4.0350   49.6495 C.3     1  ZINC001461256440   -0.1300
     17 C17        -3.1427    3.8936   51.1534 C.3     1  ZINC001461256440   -0.1100
     18 C18        -4.4861    3.8173   51.8818 C.3     1  ZINC001461256440   -0.1100
     19 C19        -4.8446    2.3522   52.1385 C.3     1  ZINC001461256440   -0.1200
     20 C20        -6.2039    2.2734   52.7843 C.2     1  ZINC001461256440    0.4600
     21 O21        -6.5877    3.1713   53.4959 O.2     1  ZINC001461256440   -0.5000
     22 O22        -6.9884    1.2057   52.5689 O.3     1  ZINC001461256440   -0.3500
     23 C23        -8.2506    1.1598   53.2852 C.3     1  ZINC001461256440    0.1200
     24 C24        -9.1213    2.3440   52.8605 C.3     1  ZINC001461256440   -0.1800
     25 C25        -8.9745   -0.1482   52.9596 C.3     1  ZINC001461256440   -0.1400
     26 C26        -7.9859    1.2352   54.7902 C.3     1  ZINC001461256440   -0.1800
     27 H27         2.5623    3.3229   43.7256 H       1  ZINC001461256440    0.0800
     28 H28         2.1675    1.8446   44.6350 H       1  ZINC001461256440    0.0700
     29 H29         1.6190    2.0270   42.9516 H       1  ZINC001461256440    0.0700
     30 H30         0.7032    3.7262   45.3161 H       1  ZINC001461256440    0.0700
     31 H31         0.1546    3.9086   43.6326 H       1  ZINC001461256440    0.0700
     32 H32        -3.3571    2.0733   46.3293 H       1  ZINC001461256440    0.1300
     33 H33        -2.9394    0.8621   45.0937 H       1  ZINC001461256440    0.1400
     34 H34         1.7611   -1.1360   47.8661 H       1  ZINC001461256440    0.0800
     35 H35         0.6301   -2.1687   48.7729 H       1  ZINC001461256440    0.0800
     36 H36         0.7483   -2.3183   47.0032 H       1  ZINC001461256440    0.0700
     37 H37        -0.7813   -0.0682   49.7782 H       1  ZINC001461256440    0.1800
     38 H38        -3.4900    1.4322   49.3040 H       1  ZINC001461256440    0.4100
     39 H39        -3.1984    5.0653   49.3466 H       1  ZINC001461256440    0.1000
     40 H40        -4.4180    3.7712   49.4216 H       1  ZINC001461256440    0.1000
     41 H41        -2.5731    2.9845   51.3457 H       1  ZINC001461256440    0.0800
     42 H42        -2.5826    4.7564   51.5138 H       1  ZINC001461256440    0.0800
     43 H43        -4.4145    4.3458   52.8324 H       1  ZINC001461256440    0.0700
     44 H44        -5.2594    4.2782   51.2672 H       1  ZINC001461256440    0.0700
     45 H45        -4.8597    1.8107   51.1926 H       1  ZINC001461256440    0.1100
     46 H46        -4.1016    1.9069   52.8001 H       1  ZINC001461256440    0.1100
     47 H47        -9.3099    2.2902   51.7883 H       1  ZINC001461256440    0.0600
     48 H48       -10.0689    2.3096   53.3983 H       1  ZINC001461256440    0.0700
     49 H49        -8.6056    3.2758   53.0924 H       1  ZINC001461256440    0.0800
     50 H50        -8.3542   -0.9918   53.2621 H       1  ZINC001461256440    0.0700
     51 H51        -9.9219   -0.1826   53.4974 H       1  ZINC001461256440    0.0800
     52 H52        -9.1631   -0.2019   51.8873 H       1  ZINC001461256440    0.0700
     53 H53        -7.4701    2.1671   55.0221 H       1  ZINC001461256440    0.0800
     54 H54        -8.9333    1.2008   55.3279 H       1  ZINC001461256440    0.0700
     55 H55        -7.3655    0.3916   55.0928 H       1  ZINC001461256440    0.0600
@<TRIPOS>BOND
     1     1     2    1
     2     1    27    1
     3     1    28    1
     4     1    29    1
     5     2     3    1
     6     2    30    1
     7     2    31    1
     8     3     4    1
     9     4     5    2
    10     4     6    1
    11     6     7    1
    12     6    32    1
    13     6    33    1
    14     7    12    1
    15     7     8    1
    16     8     9    2
    17     9    10    1
    18     9    11    1
    19    10    34    1
    20    10    35    1
    21    10    36    1
    22    11    12    2
    23    11    37    1
    24    12    13    1
    25    13    14   am
    26    13    38    1
    27    14    15    2
    28    14    16    1
    29    16    17    1
    30    16    39    1
    31    16    40    1
    32    17    18    1
    33    17    41    1
    34    17    42    1
    35    18    19    1
    36    18    43    1
    37    18    44    1
    38    19    20    1
    39    19    45    1
    40    19    46    1
    41    20    21    2
    42    20    22    1
    43    22    23    1
    44    23    24    1
    45    23    25    1
    46    23    26    1
    47    24    47    1
    48    24    48    1
    49    24    49    1
    50    25    50    1
    51    25    51    1
    52    25    52    1
    53    26    53    1
    54    26    54    1
    55    26    55    1
@<TRIPOS>SUBSTRUCTURE
     1 ZINC001461256440        1 TEMP              0 ****  ****    0 ROOT


##########                                Name:    ZINC000496437542
##########                DOCK_Rotatable_Bonds:                   7
##########                         Heavy_Atoms:                  24
##########                    Molecular_Weight:             338.447
##########                DOCK_Rotatable_Bonds:                   7
##########                       Formal_Charge:           0.0400002
##########                     HBond_Acceptors:                   6
##########                        HBond_Donors:                   1
##########                         Heavy_Atoms:                  24
##########                          Grid_Score:          -31.281116
##########                     Grid_vdw_energy:          -30.644783
##########                      Grid_es_energy:           -0.636334
##########           Internal_energy_repulsive:           32.315773

@<TRIPOS>MOLECULE
ZINC000496437542
 54 55 1 0 0
SMALL
USER_CHARGES


@<TRIPOS>ATOM
      1 C1         -5.8185   -1.0341   51.9757 C.3     1  ZINC000496437542   -0.1800
      2 C2         -6.9380    0.0082   52.0152 C.3     1  ZINC000496437542    0.1400
      3 C3         -7.7531   -0.0697   50.7227 C.3     1  ZINC000496437542   -0.1800
      4 C4         -7.8508   -0.2690   53.2113 C.3     1  ZINC000496437542   -0.1400
      5 O5         -6.3604    1.3341   52.1440 O.3     1  ZINC000496437542   -0.3600
      6 C6         -5.3339    1.6358   51.3267 C.2     1  ZINC000496437542    0.6600
      7 O7         -5.2062    1.0495   50.2700 O.2     1  ZINC000496437542   -0.5600
      8 N8         -4.4480    2.5878   51.6805 N.am    1  ZINC000496437542   -0.6000
      9 C9         -4.5820    3.3110   52.9550 C.3     1  ZINC000496437542    0.0800
     10 C10        -3.2344    3.2601   53.6839 C.3     1  ZINC000496437542    0.0500
     11 O11        -2.2048    3.7135   52.8018 O.3     1  ZINC000496437542   -0.3700
     12 C12        -2.0319    2.9017   51.6378 C.3     1  ZINC000496437542    0.0700
     13 H13        -1.8184    1.8757   51.9379 H       1  ZINC000496437542    0.0700
     14 C14        -0.8680    3.4433   50.8053 C.3     1  ZINC000496437542    0.1300
     15 N15        -0.6358    2.5614   49.6588 N.am    1  ZINC000496437542   -0.7200
     16 C16        -0.9309    2.9835   48.4133 C.2     1  ZINC000496437542    0.5600
     17 O17        -1.3887    4.0969   48.2411 O.2     1  ZINC000496437542   -0.5400
     18 C18        -0.6993    2.0974   47.2621 C.2     1  ZINC000496437542   -0.1900
     19 C19        -0.5386    0.8056   47.4519 C.2     1  ZINC000496437542   -0.0600
     20 C20        -0.2992   -0.1154   46.2742 C.3     1  ZINC000496437542   -0.1000
     21 C21        -1.6022   -0.2419   45.4816 C.3     1  ZINC000496437542   -0.1100
     22 C22        -1.7351    0.8893   44.4784 C.3     1  ZINC000496437542   -0.1200
     23 C23        -1.9137    2.2557   45.1146 C.3     1  ZINC000496437542   -0.1200
     24 C24        -0.6532    2.6755   45.8635 C.3     1  ZINC000496437542   -0.0800
     25 C25        -3.3147    2.9304   50.8067 C.3     1  ZINC000496437542    0.1000
     26 H26        -5.1682   -0.8367   51.1235 H       1  ZINC000496437542    0.0900
     27 H27        -5.2379   -0.9786   52.8965 H       1  ZINC000496437542    0.0600
     28 H28        -6.2521   -2.0295   51.8790 H       1  ZINC000496437542    0.0700
     29 H29        -8.1867   -1.0651   50.6260 H       1  ZINC000496437542    0.0700
     30 H30        -8.5507    0.6727   50.7509 H       1  ZINC000496437542    0.0600
     31 H31        -7.1028    0.1277   49.8705 H       1  ZINC000496437542    0.0900
     32 H32        -7.2701   -0.2134   54.1321 H       1  ZINC000496437542    0.0700
     33 H33        -8.6483    0.4736   53.2395 H       1  ZINC000496437542    0.0700
     34 H34        -8.2844   -1.2643   53.1146 H       1  ZINC000496437542    0.0800
     35 H35        -4.8558    4.3482   52.7614 H       1  ZINC000496437542    0.0800
     36 H36        -5.3488    2.8367   53.5675 H       1  ZINC000496437542    0.1000
     37 H37        -3.2710    3.9044   54.5624 H       1  ZINC000496437542    0.1100
     38 H38        -3.0253    2.2356   53.9914 H       1  ZINC000496437542    0.0600
     39 H39        -1.1106    4.4449   50.4501 H       1  ZINC000496437542    0.0900
     40 H40         0.0309    3.4838   51.4205 H       1  ZINC000496437542    0.0800
     41 H41        -0.2694    1.6738   49.7959 H       1  ZINC000496437542    0.4000
     42 H42        -0.5773    0.4003   48.4523 H       1  ZINC000496437542    0.1300
     43 H43         0.4789    0.3022   45.6353 H       1  ZINC000496437542    0.0800
     44 H44         0.0072   -1.0976   46.6341 H       1  ZINC000496437542    0.0800
     45 H45        -1.6083   -1.1941   44.9513 H       1  ZINC000496437542    0.0700
     46 H46        -2.4459   -0.2108   46.1711 H       1  ZINC000496437542    0.0700
     47 H47        -0.8401    0.9095   43.8565 H       1  ZINC000496437542    0.0600
     48 H48        -2.5947    0.6881   43.8392 H       1  ZINC000496437542    0.0600
     49 H49        -2.1300    2.9880   44.3367 H       1  ZINC000496437542    0.0700
     50 H50        -2.7490    2.2193   45.8140 H       1  ZINC000496437542    0.0600
     51 H51        -0.6055    3.7631   45.9190 H       1  ZINC000496437542    0.0700
     52 H52         0.2256    2.2940   45.3435 H       1  ZINC000496437542    0.0800
     53 H53        -3.2427    2.2060   49.9953 H       1  ZINC000496437542    0.1100
     54 H54        -3.4637    3.9289   50.3959 H       1  ZINC000496437542    0.0900
@<TRIPOS>BOND
     1     1     2    1
     2     1    26    1
     3     1    27    1
     4     1    28    1
     5     2     3    1
     6     2     4    1
     7     2     5    1
     8     3    29    1
     9     3    30    1
    10     3    31    1
    11     4    32    1
    12     4    33    1
    13     4    34    1
    14     5     6    1
    15     6     7    2
    16     6     8   am
    17     8    25    1
    18     8     9    1
    19     9    10    1
    20     9    35    1
    21     9    36    1
    22    10    11    1
    23    10    37    1
    24    10    38    1
    25    11    12    1
    26    12    13    1
    27    12    14    1
    28    12    25    1
    29    14    15    1
    30    14    39    1
    31    14    40    1
    32    15    16   am
    33    15    41    1
    34    16    17    2
    35    16    18    1
    36    18    24    1
    37    18    19    2
    38    19    20    1
    39    19    42    1
    40    20    21    1
    41    20    43    1
    42    20    44    1
    43    21    22    1
    44    21    45    1
    45    21    46    1
    46    22    23    1
    47    22    47    1
    48    22    48    1
    49    23    24    1
    50    23    49    1
    51    23    50    1
    52    24    51    1
    53    24    52    1
    54    25    53    1
    55    25    54    1
@<TRIPOS>SUBSTRUCTURE
     1 ZINC000496437542        1 TEMP              0 ****  ****    0 ROOT


##########                                Name:    ZINC000918875053
##########                DOCK_Rotatable_Bonds:                   6
##########                         Heavy_Atoms:                  26
##########                    Molecular_Weight:             359.357
##########                DOCK_Rotatable_Bonds:                   6
##########                       Formal_Charge:           0.0200003
##########                     HBond_Acceptors:                   8
##########                        HBond_Donors:                   0
##########                         Heavy_Atoms:                  26
##########                          Grid_Score:          -31.275862
##########                     Grid_vdw_energy:          -31.119534
##########                      Grid_es_energy:           -0.156329
##########           Internal_energy_repulsive:            6.645754

@<TRIPOS>MOLECULE
ZINC000918875053
 44 47 1 0 0
SMALL
USER_CHARGES


@<TRIPOS>ATOM
      1 C1        -10.3314   -3.1599   55.4368 C.3     1  ZINC000918875053   -0.1700
      2 C2        -10.6482   -3.5245   56.8887 C.3     1  ZINC000918875053    0.1900
      3 H3        -10.1670   -4.4699   57.1391 H       1  ZINC000918875053    0.1400
      4 O4        -10.1530   -2.4812   57.7688 O.3     1  ZINC000918875053   -0.3400
      5 C5         -9.7519   -2.8567   58.9935 C.2     1  ZINC000918875053    0.4800
      6 O6        -10.1174   -3.9135   59.4514 O.2     1  ZINC000918875053   -0.4900
      7 C7         -8.8458   -1.9603   59.7975 C.3     1  ZINC000918875053   -0.0900
      8 H8         -7.8441   -2.3843   59.8688 H       1  ZINC000918875053    0.1400
      9 C9         -8.8022   -0.5359   59.1974 C.3     1  ZINC000918875053   -0.1400
     10 C10        -8.7351    0.3734   60.4046 C.2     1  ZINC000918875053    0.5300
     11 O11        -8.4097    1.5415   60.3773 O.2     1  ZINC000918875053   -0.5000
     12 N12        -9.0890   -0.3015   61.5119 N.am    1  ZINC000918875053   -0.5800
     13 C13        -9.1229    0.2522   62.7978 C.ar    1  ZINC000918875053    0.1000
     14 C14        -8.0908    0.0008   63.6907 C.ar    1  ZINC000918875053   -0.0800
     15 C15        -8.1265    0.5488   64.9587 C.ar    1  ZINC000918875053   -0.1200
     16 C16        -9.1890    1.3469   65.3397 C.ar    1  ZINC000918875053   -0.0800
     17 C17       -10.2202    1.6006   64.4533 C.ar    1  ZINC000918875053   -0.1500
     18 C18       -10.1882    1.0602   63.1810 C.ar    1  ZINC000918875053    0.1100
     19 F19       -11.1950    1.3082   62.3151 F       1  ZINC000918875053   -0.1300
     20 C20        -9.4346   -1.6941   61.2006 C.3     1  ZINC000918875053    0.1200
     21 C21       -12.1394   -3.6593   57.0588 C.2     1  ZINC000918875053    0.1800
     22 N22       -12.9420   -2.7926   57.6283 N.2     1  ZINC000918875053   -0.4600
     23 C23       -14.1715   -3.3322   57.5506 C.2     1  ZINC000918875053    0.2100
     24 C24       -15.4484   -2.7200   58.0660 C.3     1  ZINC000918875053   -0.0900
     25 C25       -15.9664   -3.2031   59.4222 C.3     1  ZINC000918875053   -0.1600
     26 C26       -15.3506   -1.8087   59.2911 C.3     1  ZINC000918875053   -0.1500
     27 N27       -14.0561   -4.4782   56.9490 N.2     1  ZINC000918875053   -0.3700
     28 O28       -12.8976   -4.6823   56.6530 O.3     1  ZINC000918875053    0.1000
     29 H29        -9.2528   -3.0624   55.3137 H       1  ZINC000918875053    0.0900
     30 H30       -10.7033   -3.9431   54.7762 H       1  ZINC000918875053    0.0900
     31 H31       -10.8126   -2.2145   55.1864 H       1  ZINC000918875053    0.0800
     32 H32        -7.9157   -0.4107   58.5758 H       1  ZINC000918875053    0.1300
     33 H33        -9.7052   -0.3373   58.6201 H       1  ZINC000918875053    0.1100
     34 H34        -7.2603   -0.6232   63.3949 H       1  ZINC000918875053    0.1400
     35 H35        -7.3231    0.3529   65.6535 H       1  ZINC000918875053    0.1400
     36 H36        -9.2142    1.7731   66.3316 H       1  ZINC000918875053    0.1400
     37 H37       -11.0488    2.2245   64.7540 H       1  ZINC000918875053    0.1400
     38 H38       -10.5173   -1.8196   61.1847 H       1  ZINC000918875053    0.1000
     39 H39        -8.9870   -2.3665   61.9324 H       1  ZINC000918875053    0.1000
     40 H40       -16.1874   -2.4648   57.3065 H       1  ZINC000918875053    0.1400
     41 H41       -17.0464   -3.2660   59.5551 H       1  ZINC000918875053    0.1100
     42 H42       -15.3835   -3.9638   59.9415 H       1  ZINC000918875053    0.1000
     43 H43       -14.3627   -1.6519   59.7242 H       1  ZINC000918875053    0.1000
     44 H44       -16.0257   -0.9541   59.3377 H       1  ZINC000918875053    0.1100
@<TRIPOS>BOND
     1     1     2    1
     2     1    29    1
     3     1    30    1
     4     1    31    1
     5     2     3    1
     6     2     4    1
     7     2    21    1
     8     4     5    1
     9     5     6    2
    10     5     7    1
    11     7     8    1
    12     7    20    1
    13     7     9    1
    14     9    10    1
    15     9    32    1
    16     9    33    1
    17    10    11    2
    18    10    12   am
    19    12    13    1
    20    12    20    1
    21    13    18   ar
    22    13    14   ar
    23    14    15   ar
    24    14    34    1
    25    15    16   ar
    26    15    35    1
    27    16    17   ar
    28    16    36    1
    29    17    18   ar
    30    17    37    1
    31    18    19    1
    32    20    38    1
    33    20    39    1
    34    21    28    1
    35    21    22    2
    36    22    23    1
    37    23    24    1
    38    23    27    2
    39    24    26    1
    40    24    25    1
    41    24    40    1
    42    25    26    1
    43    25    41    1
    44    25    42    1
    45    26    43    1
    46    26    44    1
    47    27    28    1
@<TRIPOS>SUBSTRUCTURE
     1 ZINC000918875053        1 TEMP              0 ****  ****    0 ROOT


##########                                Name:    ZINC000581017854
##########                DOCK_Rotatable_Bonds:                   6
##########                         Heavy_Atoms:                  24
##########                    Molecular_Weight:             330.334
##########                DOCK_Rotatable_Bonds:                   6
##########                       Formal_Charge:           0.0099998
##########                     HBond_Acceptors:                   6
##########                        HBond_Donors:                   2
##########                         Heavy_Atoms:                  24
##########                          Grid_Score:          -31.271223
##########                     Grid_vdw_energy:          -31.430344
##########                      Grid_es_energy:            0.159121
##########           Internal_energy_repulsive:            9.434381

@<TRIPOS>MOLECULE
ZINC000581017854
 40 42 1 0 0
SMALL
USER_CHARGES


@<TRIPOS>ATOM
      1 C1         -2.4946    2.4979   51.3145 C.3     1  ZINC000581017854   -0.1600
      2 C2         -3.7701    2.5832   50.4737 C.3     1  ZINC000581017854    0.1500
      3 H3         -4.2973    3.5084   50.7063 H       1  ZINC000581017854    0.1100
      4 C4         -3.4039    2.5644   48.9883 C.3     1  ZINC000581017854    0.0500
      5 O5         -2.9041    1.2725   48.6372 O.3     1  ZINC000581017854   -0.3100
      6 C6         -2.5023    1.0949   47.3512 C.ar    1  ZINC000581017854    0.1600
      7 C7         -2.0571   -0.1490   46.9281 C.ar    1  ZINC000581017854   -0.2200
      8 C8         -1.6488   -0.3284   45.6202 C.ar    1  ZINC000581017854   -0.0500
      9 C9         -1.6828    0.7304   44.7326 C.ar    1  ZINC000581017854   -0.1900
     10 C10        -2.1262    1.9739   45.1516 C.ar    1  ZINC000581017854    0.1400
     11 F11        -2.1586    3.0077   44.2824 F       1  ZINC000581017854   -0.1300
     12 C12        -2.5421    2.1559   46.4585 C.ar    1  ZINC000581017854   -0.1900
     13 N13        -4.6332    1.4394   50.7784 N.am    1  ZINC000581017854   -0.7300
     14 C14        -5.4721    1.4901   51.8320 C.2     1  ZINC000581017854    0.5900
     15 O15        -5.5117    2.4853   52.5308 O.2     1  ZINC000581017854   -0.5400
     16 C16        -6.3390    0.3438   52.1366 C.2     1  ZINC000581017854   -0.2200
     17 C17        -6.1961   -0.9321   51.6775 C.2     1  ZINC000581017854    0.1100
     18 N18        -7.1870   -1.7117   52.1744 N.pl3   1  ZINC000581017854   -0.5700
     19 C19        -8.0229   -0.9705   52.9839 C.ar    1  ZINC000581017854    0.1100
     20 C20        -9.1620   -1.2849   53.7171 C.ar    1  ZINC000581017854   -0.1600
     21 C21        -9.8007   -0.3055   54.4503 C.ar    1  ZINC000581017854    0.1200
     22 F22       -10.9067   -0.6155   55.1614 F       1  ZINC000581017854   -0.1400
     23 C23        -9.3157    0.9962   54.4639 C.ar    1  ZINC000581017854   -0.1700
     24 C24        -8.1885    1.3251   53.7433 C.ar    1  ZINC000581017854   -0.0300
     25 C25        -7.5316    0.3448   53.0043 C.ar    1  ZINC000581017854   -0.0700
     26 H26        -1.8523    3.3489   51.0877 H       1  ZINC000581017854    0.0700
     27 H27        -2.7554    2.5113   52.3726 H       1  ZINC000581017854    0.0700
     28 H28        -1.9673    1.5727   51.0819 H       1  ZINC000581017854    0.0700
     29 H29        -4.2899    2.7852   48.3929 H       1  ZINC000581017854    0.0700
     30 H30        -2.6385    3.3155   48.7932 H       1  ZINC000581017854    0.0800
     31 H31        -2.0294   -0.9770   47.6209 H       1  ZINC000581017854    0.1400
     32 H32        -1.3023   -1.2970   45.2914 H       1  ZINC000581017854    0.1400
     33 H33        -1.3629    0.5880   43.7109 H       1  ZINC000581017854    0.1400
     34 H34        -2.8882    3.1251   46.7857 H       1  ZINC000581017854    0.1400
     35 H35        -4.6009    0.6455   50.2220 H       1  ZINC000581017854    0.4000
     36 H36        -5.4113   -1.2705   51.0173 H       1  ZINC000581017854    0.1800
     37 H37        -7.2938   -2.6575   51.9868 H       1  ZINC000581017854    0.4200
     38 H38        -9.5467   -2.2940   53.7124 H       1  ZINC000581017854    0.1400
     39 H39        -9.8248    1.7537   55.0414 H       1  ZINC000581017854    0.1400
     40 H40        -7.8135    2.3379   53.7552 H       1  ZINC000581017854    0.1500
@<TRIPOS>BOND
     1     1     2    1
     2     1    26    1
     3     1    27    1
     4     1    28    1
     5     2     3    1
     6     2     4    1
     7     2    13    1
     8     4     5    1
     9     4    29    1
    10     4    30    1
    11     5     6    1
    12     6    12   ar
    13     6     7   ar
    14     7     8   ar
    15     7    31    1
    16     8     9   ar
    17     8    32    1
    18     9    10   ar
    19     9    33    1
    20    10    11    1
    21    10    12   ar
    22    12    34    1
    23    13    14   am
    24    13    35    1
    25    14    15    2
    26    14    16    1
    27    16    25    1
    28    16    17    2
    29    17    18    1
    30    17    36    1
    31    18    19    1
    32    18    37    1
    33    19    25   ar
    34    19    20   ar
    35    20    21   ar
    36    20    38    1
    37    21    22    1
    38    21    23   ar
    39    23    24   ar
    40    23    39    1
    41    24    25   ar
    42    24    40    1
@<TRIPOS>SUBSTRUCTURE
     1 ZINC000581017854        1 TEMP              0 ****  ****    0 ROOT


##########                                Name:    ZINC001162683355
##########                DOCK_Rotatable_Bonds:                   5
##########                         Heavy_Atoms:                  25
##########                    Molecular_Weight:             336.437
##########                DOCK_Rotatable_Bonds:                   5
##########                       Formal_Charge:          -0.0100002
##########                     HBond_Acceptors:                   5
##########                        HBond_Donors:                   1
##########                         Heavy_Atoms:                  25
##########                          Grid_Score:          -31.268951
##########                     Grid_vdw_energy:          -30.222736
##########                      Grid_es_energy:           -1.046215
##########           Internal_energy_repulsive:           14.891019

@<TRIPOS>MOLECULE
ZINC001162683355
 49 52 1 0 0
SMALL
USER_CHARGES


@<TRIPOS>ATOM
      1 C1          0.7255    4.7380   44.0740 C.3     1  ZINC001162683355    0.0200
      2 N2          0.4536    3.4828   44.7871 N.3     1  ZINC001162683355   -0.5400
      3 C3          0.9189    2.3243   44.0107 C.3     1  ZINC001162683355    0.0100
      4 C4          0.6709    1.0451   44.8146 C.3     1  ZINC001162683355    0.0600
      5 O5         -0.7186    0.9553   45.1414 O.3     1  ZINC001162683355   -0.3800
      6 C6         -1.2051    2.0671   45.8980 C.3     1  ZINC001162683355    0.0800
      7 H7         -0.6716    2.1229   46.8469 H       1  ZINC001162683355    0.0700
      8 C8         -2.7014    1.8891   46.1630 C.3     1  ZINC001162683355    0.1500
      9 N9         -2.8910    1.0493   47.3483 N.pl3   1  ZINC001162683355   -0.7300
     10 C10        -1.9081    0.1386   47.7197 C.ar    1  ZINC001162683355    0.4300
     11 C11        -1.0318    0.4455   48.7633 C.ar    1  ZINC001162683355   -0.0100
     12 C12        -0.0493   -0.4987   49.1133 C.ar    1  ZINC001162683355   -0.0400
     13 C13         0.0088   -1.7048   48.4022 C.ar    1  ZINC001162683355   -0.1800
     14 C14        -0.8882   -1.9203   47.3967 C.ar    1  ZINC001162683355    0.1000
     15 N15        -1.8048   -1.0170   47.0843 N.ar    1  ZINC001162683355   -0.5400
     16 C16         0.7037    0.0893   50.2171 C.2     1  ZINC001162683355   -0.2200
     17 C17         0.1665    1.2985   50.4585 C.2     1  ZINC001162683355    0.0800
     18 N18        -0.8740    1.5244   49.6030 N.pl3   1  ZINC001162683355   -0.4600
     19 C19        -1.6957    2.7370   49.5788 C.3     1  ZINC001162683355    0.1500
     20 C20        -2.7343    2.6618   50.6682 C.ar    1  ZINC001162683355   -0.1100
     21 C21        -2.4375    3.1185   51.9387 C.ar    1  ZINC001162683355   -0.1000
     22 C22        -3.3918    3.0536   52.9369 C.ar    1  ZINC001162683355   -0.1200
     23 C23        -4.6395    2.5234   52.6668 C.ar    1  ZINC001162683355   -0.1100
     24 C24        -4.9345    2.0619   51.3976 C.ar    1  ZINC001162683355   -0.1200
     25 C25        -3.9817    2.1309   50.3983 C.ar    1  ZINC001162683355   -0.1000
     26 C26        -0.9761    3.3566   45.1052 C.3     1  ZINC001162683355    0.0300
     27 H27         0.1531    4.7603   43.1466 H       1  ZINC001162683355    0.0300
     28 H28         0.4358    5.5817   44.7001 H       1  ZINC001162683355    0.0700
     29 H29         1.7895    4.8032   43.8460 H       1  ZINC001162683355    0.0700
     30 H30         1.9851    2.4261   43.8085 H       1  ZINC001162683355    0.0900
     31 H31         0.3722    2.2741   43.0690 H       1  ZINC001162683355    0.0500
     32 H32         1.2595    1.0718   45.7316 H       1  ZINC001162683355    0.0600
     33 H33         0.9618    0.1789   44.2203 H       1  ZINC001162683355    0.1000
     34 H34        -3.1687    1.4122   45.3014 H       1  ZINC001162683355    0.0700
     35 H35        -3.1591    2.8640   46.3313 H       1  ZINC001162683355    0.0800
     36 H36        -3.7024    1.1286   47.8740 H       1  ZINC001162683355    0.4000
     37 H37         0.7504   -2.4511   48.6459 H       1  ZINC001162683355    0.1300
     38 H38        -0.8501   -2.8475   46.8443 H       1  ZINC001162683355    0.1500
     39 H39         1.5368   -0.3594   50.7378 H       1  ZINC001162683355    0.1500
     40 H40         0.5059    1.9876   51.2177 H       1  ZINC001162683355    0.1700
     41 H41        -2.1898    2.8219   48.6109 H       1  ZINC001162683355    0.0900
     42 H42        -1.0617    3.6087   49.7408 H       1  ZINC001162683355    0.0900
     43 H43        -1.4614    3.5292   52.1507 H       1  ZINC001162683355    0.1200
     44 H44        -3.1614    3.4144   53.9284 H       1  ZINC001162683355    0.1300
     45 H45        -5.3841    2.4703   53.4473 H       1  ZINC001162683355    0.1300
     46 H46        -5.9093    1.6478   51.1866 H       1  ZINC001162683355    0.1300
     47 H47        -4.2121    1.7703   49.4067 H       1  ZINC001162683355    0.1200
     48 H48        -1.5530    3.3228   44.1810 H       1  ZINC001162683355    0.0500
     49 H49        -1.2931    4.2119   45.7018 H       1  ZINC001162683355    0.0900
@<TRIPOS>BOND
     1     1     2    1
     2     1    27    1
     3     1    28    1
     4     1    29    1
     5     2    26    1
     6     2     3    1
     7     3     4    1
     8     3    30    1
     9     3    31    1
    10     4     5    1
    11     4    32    1
    12     4    33    1
    13     5     6    1
    14     6     7    1
    15     6     8    1
    16     6    26    1
    17     8     9    1
    18     8    34    1
    19     8    35    1
    20     9    10    1
    21     9    36    1
    22    10    15   ar
    23    10    11   ar
    24    11    18    1
    25    11    12   ar
    26    12    13   ar
    27    12    16    1
    28    13    14   ar
    29    13    37    1
    30    14    15   ar
    31    14    38    1
    32    16    17    2
    33    16    39    1
    34    17    18    1
    35    17    40    1
    36    18    19    1
    37    19    20    1
    38    19    41    1
    39    19    42    1
    40    20    25   ar
    41    20    21   ar
    42    21    22   ar
    43    21    43    1
    44    22    23   ar
    45    22    44    1
    46    23    24   ar
    47    23    45    1
    48    24    25   ar
    49    24    46    1
    50    25    47    1
    51    26    48    1
    52    26    49    1
@<TRIPOS>SUBSTRUCTURE
     1 ZINC001162683355        1 TEMP              0 ****  ****    0 ROOT


##########                                Name:    ZINC001456607258
##########                DOCK_Rotatable_Bonds:                   9
##########                         Heavy_Atoms:                  25
##########                    Molecular_Weight:             339.437
##########                DOCK_Rotatable_Bonds:                   9
##########                       Formal_Charge:          -0.0200009
##########                     HBond_Acceptors:                   5
##########                        HBond_Donors:                   2
##########                         Heavy_Atoms:                  25
##########                          Grid_Score:          -31.223385
##########                     Grid_vdw_energy:          -31.424568
##########                      Grid_es_energy:            0.201184
##########           Internal_energy_repulsive:           14.364859

@<TRIPOS>MOLECULE
ZINC001456607258
 50 52 1 0 0
SMALL
USER_CHARGES


@<TRIPOS>ATOM
      1 C1         -2.1787    0.9769   44.9463 C.3     1  ZINC001456607258   -0.1600
      2 C2         -1.6847   -0.0785   45.9379 C.3     1  ZINC001456607258   -0.1100
      3 C3         -0.4779    0.4670   46.7042 C.3     1  ZINC001456607258   -0.1000
      4 H4          0.3157    0.7186   46.0008 H       1  ZINC001456607258    0.0900
      5 C5          0.0264   -0.5945   47.6839 C.3     1  ZINC001456607258   -0.0700
      6 C6          1.0963    0.0008   48.5625 C.ar    1  ZINC001456607258   -0.0800
      7 C7          2.1877    0.6296   47.9930 C.ar    1  ZINC001456607258   -0.1200
      8 C8          3.1691    1.1757   48.7989 C.ar    1  ZINC001456607258   -0.1200
      9 C9          3.0589    1.0933   50.1744 C.ar    1  ZINC001456607258   -0.1200
     10 C10         1.9671    0.4654   50.7439 C.ar    1  ZINC001456607258   -0.1200
     11 C11         0.9836   -0.0769   49.9381 C.ar    1  ZINC001456607258   -0.1200
     12 C12        -0.8835    1.7020   47.4667 C.2     1  ZINC001456607258    0.5200
     13 O13        -0.3731    2.7707   47.2057 O.2     1  ZINC001456607258   -0.5300
     14 N14        -1.8136    1.6189   48.4386 N.am    1  ZINC001456607258   -0.7300
     15 C15        -2.2079    2.8194   49.1798 C.3     1  ZINC001456607258    0.1300
     16 C16        -2.8191    2.4123   50.5220 C.3     1  ZINC001456607258   -0.1400
     17 C17        -3.6612    3.5198   51.1810 C.3     1  ZINC001456607258    0.1100
     18 N18        -4.6233    2.4513   51.5138 N.am    1  ZINC001456607258   -0.6500
     19 C19        -5.5671    2.2921   52.4627 C.2     1  ZINC001456607258    0.6100
     20 O20        -5.7560    3.1677   53.2855 O.2     1  ZINC001456607258   -0.5400
     21 C21        -6.3696    1.0580   52.5032 C.2     1  ZINC001456607258   -0.2300
     22 C22        -6.4831    0.1185   51.5157 C.2     1  ZINC001456607258    0.0400
     23 N23        -7.3098   -0.8531   51.9466 N.pl3   1  ZINC001456607258   -0.5500
     24 C24        -7.7499   -0.5754   53.2080 C.2     1  ZINC001456607258   -0.0200
     25 C25        -7.2037    0.5848   53.6132 C.2     1  ZINC001456607258   -0.1400
     26 C26        -4.1368    1.6272   50.3904 C.3     1  ZINC001456607258    0.1100
     27 H27        -2.9790    0.5566   44.3372 H       1  ZINC001456607258    0.0600
     28 H28        -2.5543    1.8417   45.4932 H       1  ZINC001456607258    0.0600
     29 H29        -1.3549    1.2840   44.3022 H       1  ZINC001456607258    0.0600
     30 H30        -2.4828   -0.3187   46.6404 H       1  ZINC001456607258    0.0800
     31 H31        -1.3944   -0.9786   45.3960 H       1  ZINC001456607258    0.0700
     32 H32        -0.8014   -0.9401   48.3030 H       1  ZINC001456607258    0.0800
     33 H33         0.4398   -1.4355   47.1273 H       1  ZINC001456607258    0.0900
     34 H34         2.2738    0.6940   46.9183 H       1  ZINC001456607258    0.1200
     35 H35         4.0222    1.6663   48.3539 H       1  ZINC001456607258    0.1200
     36 H36         3.8261    1.5193   50.8040 H       1  ZINC001456607258    0.1200
     37 H37         1.8812    0.4007   51.8186 H       1  ZINC001456607258    0.1200
     38 H38         0.1305   -0.5675   50.3831 H       1  ZINC001456607258    0.1200
     39 H39        -2.2219    0.7641   48.6472 H       1  ZINC001456607258    0.4000
     40 H40        -1.3311    3.4431   49.3541 H       1  ZINC001456607258    0.0700
     41 H41        -2.9425    3.3790   48.6008 H       1  ZINC001456607258    0.0800
     42 H42        -2.0973    1.9485   51.1944 H       1  ZINC001456607258    0.1100
     43 H43        -3.1878    3.9718   52.0526 H       1  ZINC001456607258    0.0800
     44 H44        -4.0482    4.2556   50.4762 H       1  ZINC001456607258    0.0900
     45 H45        -5.9932    0.1507   50.5538 H       1  ZINC001456607258    0.1700
     46 H46        -7.5575   -1.6382   51.4335 H       1  ZINC001456607258    0.4200
     47 H47        -8.4226   -1.1896   53.7881 H       1  ZINC001456607258    0.1700
     48 H48        -7.3551    1.0745   54.5638 H       1  ZINC001456607258    0.1500
     49 H49        -4.6636    1.8071   49.4532 H       1  ZINC001456607258    0.0900
     50 H50        -4.0431    0.5682   50.6306 H       1  ZINC001456607258    0.0900
@<TRIPOS>BOND
     1     1     2    1
     2     1    27    1
     3     1    28    1
     4     1    29    1
     5     2     3    1
     6     2    30    1
     7     2    31    1
     8     3     4    1
     9     3     5    1
    10     3    12    1
    11     5     6    1
    12     5    32    1
    13     5    33    1
    14     6    11   ar
    15     6     7   ar
    16     7     8   ar
    17     7    34    1
    18     8     9   ar
    19     8    35    1
    20     9    10   ar
    21     9    36    1
    22    10    11   ar
    23    10    37    1
    24    11    38    1
    25    12    13    2
    26    12    14   am
    27    14    15    1
    28    14    39    1
    29    15    16    1
    30    15    40    1
    31    15    41    1
    32    16    26    1
    33    16    17    1
    34    16    42    1
    35    17    18    1
    36    17    43    1
    37    17    44    1
    38    18    19   am
    39    18    26    1
    40    19    20    2
    41    19    21    1
    42    21    25    1
    43    21    22    2
    44    22    23    1
    45    22    45    1
    46    23    24    1
    47    23    46    1
    48    24    25    2
    49    24    47    1
    50    25    48    1
    51    26    49    1
    52    26    50    1
@<TRIPOS>SUBSTRUCTURE
     1 ZINC001456607258        1 TEMP              0 ****  ****    0 ROOT


##########                                Name:    ZINC000437192871
##########                DOCK_Rotatable_Bonds:                   9
##########                         Heavy_Atoms:                  28
##########                    Molecular_Weight:             423.298
##########                DOCK_Rotatable_Bonds:                   9
##########                       Formal_Charge:         -8.9407e-08
##########                     HBond_Acceptors:                   9
##########                        HBond_Donors:                   1
##########                         Heavy_Atoms:                  28
##########                          Grid_Score:          -31.222931
##########                     Grid_vdw_energy:          -30.264334
##########                      Grid_es_energy:           -0.958596
##########           Internal_energy_repulsive:           15.894479

@<TRIPOS>MOLECULE
ZINC000437192871
 48 50 1 0 0
SMALL
USER_CHARGES


@<TRIPOS>ATOM
      1 C1         -5.1851    2.1240   51.8426 C.3     1  ZINC000437192871   -0.1700
      2 C2         -5.5513    0.8378   51.0993 C.3     1  ZINC000437192871    0.1300
      3 N3         -6.6472    0.1639   51.8001 N.pl3   1  ZINC000437192871   -0.3600
      4 C4         -6.9040    0.2315   53.1232 C.2     1  ZINC000437192871    0.0700
      5 C5         -7.9962   -0.5279   53.3708 C.2     1  ZINC000437192871   -0.2700
      6 C6         -8.6409   -0.7418   54.7160 C.3     1  ZINC000437192871    0.1900
      7 N7         -9.6687    0.2795   54.9328 N.am    1  ZINC000437192871   -0.6000
      8 C8        -10.3986    0.8379   53.7920 C.3     1  ZINC000437192871    0.1100
      9 C9         -9.8202    2.2096   53.4385 C.3     1  ZINC000437192871    0.0600
     10 O10       -10.5293    2.7525   52.3230 O.3     1  ZINC000437192871   -0.5600
     11 C11        -9.9426    0.7052   56.1819 C.2     1  ZINC000437192871    0.6000
     12 O12       -10.7956    1.5532   56.3620 O.2     1  ZINC000437192871   -0.5000
     13 C13        -9.2088    0.1437   57.3288 C.2     1  ZINC000437192871   -0.2200
     14 C14        -7.9904    0.5223   57.8334 C.2     1  ZINC000437192871    0.0100
     15 C15        -7.1043    1.6260   57.3158 C.3     1  ZINC000437192871   -0.0800
     16 O16        -7.7437   -0.2780   58.8731 O.3     1  ZINC000437192871    0.1100
     17 N17        -8.6203   -1.0813   59.0779 N.2     1  ZINC000437192871   -0.3200
     18 C18        -9.6059   -0.9628   58.2247 C.2     1  ZINC000437192871    0.0800
     19 C19       -10.8482   -1.7701   58.1645 C.ar    1  ZINC000437192871   -0.0200
     20 C20       -10.8257   -3.0474   57.6075 C.ar    1  ZINC000437192871   -0.0700
     21 C21       -11.9843   -3.7949   57.5542 C.ar    1  ZINC000437192871   -0.1000
     22 C22       -13.1684   -3.2788   58.0529 C.ar    1  ZINC000437192871   -0.0100
     23 Cl23      -14.6219   -4.2255   57.9828 Cl      1  ZINC000437192871   -0.0500
     24 C24       -13.1973   -2.0107   58.6074 C.ar    1  ZINC000437192871   -0.1100
     25 C25       -12.0425   -1.2560   58.6706 C.ar    1  ZINC000437192871    0.0000
     26 Cl26      -12.0794    0.3339   59.3666 Cl      1  ZINC000437192871   -0.0300
     27 C27        -8.4214   -1.0787   52.1574 C.2     1  ZINC000437192871    0.0600
     28 N28        -7.6171   -0.6598   51.2143 N.2     1  ZINC000437192871   -0.2900
     29 H29        -4.3697    2.6254   51.3212 H       1  ZINC000437192871    0.0800
     30 H30        -6.0529    2.7826   51.8785 H       1  ZINC000437192871    0.0600
     31 H31        -4.8718    1.8803   52.8578 H       1  ZINC000437192871    0.0700
     32 H32        -5.8646    1.0815   50.0841 H       1  ZINC000437192871    0.1000
     33 H33        -4.6836    0.1792   51.0635 H       1  ZINC000437192871    0.0900
     34 H34        -6.3388    0.7914   53.8537 H       1  ZINC000437192871    0.1600
     35 H35        -9.0991   -1.7304   54.7462 H       1  ZINC000437192871    0.0900
     36 H36        -7.8846   -0.6679   55.4973 H       1  ZINC000437192871    0.0800
     37 H37       -10.3003    0.1705   52.9358 H       1  ZINC000437192871    0.1000
     38 H38       -11.4521    0.9437   54.0513 H       1  ZINC000437192871    0.1000
     39 H39        -9.9215    2.8780   54.2936 H       1  ZINC000437192871    0.0600
     40 H40        -8.7658    2.1043   53.1826 H       1  ZINC000437192871    0.0500
     41 H41       -10.4842    2.2077   51.5253 H       1  ZINC000437192871    0.3800
     42 H42        -7.2943    2.5391   57.8799 H       1  ZINC000437192871    0.1000
     43 H43        -6.0596    1.3378   57.4319 H       1  ZINC000437192871    0.0900
     44 H44        -7.3184    1.7994   56.2611 H       1  ZINC000437192871    0.0900
     45 H45        -9.9031   -3.4513   57.2178 H       1  ZINC000437192871    0.1600
     46 H46       -11.9676   -4.7847   57.1223 H       1  ZINC000437192871    0.1500
     47 H47       -14.1234   -1.6126   58.9949 H       1  ZINC000437192871    0.1500
     48 H48        -9.2701   -1.7326   52.0218 H       1  ZINC000437192871    0.1800
@<TRIPOS>BOND
     1     1     2    1
     2     1    29    1
     3     1    30    1
     4     1    31    1
     5     2     3    1
     6     2    32    1
     7     2    33    1
     8     3    28    1
     9     3     4    1
    10     4     5    2
    11     4    34    1
    12     5     6    1
    13     5    27    1
    14     6     7    1
    15     6    35    1
    16     6    36    1
    17     7     8    1
    18     7    11   am
    19     8     9    1
    20     8    37    1
    21     8    38    1
    22     9    10    1
    23     9    39    1
    24     9    40    1
    25    10    41    1
    26    11    12    2
    27    11    13    1
    28    13    18    1
    29    13    14    2
    30    14    15    1
    31    14    16    1
    32    15    42    1
    33    15    43    1
    34    15    44    1
    35    16    17    1
    36    17    18    2
    37    18    19    1
    38    19    25   ar
    39    19    20   ar
    40    20    21   ar
    41    20    45    1
    42    21    22   ar
    43    21    46    1
    44    22    23    1
    45    22    24   ar
    46    24    25   ar
    47    24    47    1
    48    25    26    1
    49    27    28    2
    50    27    48    1
@<TRIPOS>SUBSTRUCTURE
     1 ZINC000437192871        1 TEMP              0 ****  ****    0 ROOT


##########                                Name:    ZINC000151991096
##########                DOCK_Rotatable_Bonds:                   8
##########                         Heavy_Atoms:                  27
##########                    Molecular_Weight:             364.444
##########                DOCK_Rotatable_Bonds:                   8
##########                       Formal_Charge:          -0.0200004
##########                     HBond_Acceptors:                   5
##########                        HBond_Donors:                   1
##########                         Heavy_Atoms:                  27
##########                          Grid_Score:          -31.206547
##########                     Grid_vdw_energy:          -32.346550
##########                      Grid_es_energy:            1.140002
##########           Internal_energy_repulsive:           16.702038

@<TRIPOS>MOLECULE
ZINC000151991096
 51 53 1 0 0
SMALL
USER_CHARGES


@<TRIPOS>ATOM
      1 C1         -9.2197    3.4388   55.2913 C.3     1  ZINC000151991096   -0.1500
      2 C2         -8.3438    3.3743   54.0385 C.3     1  ZINC000151991096   -0.1300
      3 C3         -7.7354    1.9761   53.9130 C.3     1  ZINC000151991096    0.1400
      4 H4         -7.2318    1.7141   54.8436 H       1  ZINC000151991096    0.1000
      5 N5         -6.7678    1.9615   52.8132 N.am    1  ZINC000151991096   -0.7200
      6 C6         -5.5369    2.4808   52.9915 C.2     1  ZINC000151991096    0.5600
      7 O7         -5.2302    2.9629   54.0648 O.2     1  ZINC000151991096   -0.5300
      8 C8         -4.5614    2.4645   51.8839 C.ar    1  ZINC000151991096   -0.1700
      9 C9         -4.8079    1.6939   50.7447 C.ar    1  ZINC000151991096   -0.0500
     10 C10        -3.8956    1.6817   49.7133 C.ar    1  ZINC000151991096   -0.1600
     11 C11        -2.7307    2.4345   49.8044 C.ar    1  ZINC000151991096    0.1600
     12 O12        -1.8343    2.4202   48.7857 O.3     1  ZINC000151991096   -0.3000
     13 C13        -1.3405    1.1440   48.3739 C.3     1  ZINC000151991096    0.0900
     14 C14        -1.5834    0.9639   46.8976 C.ar    1  ZINC000151991096   -0.0500
     15 C15        -1.9781    2.0368   46.1260 C.ar    1  ZINC000151991096   -0.1000
     16 C16        -2.2016    1.8731   44.7702 C.ar    1  ZINC000151991096   -0.0900
     17 C17        -2.0316    0.6339   44.1792 C.ar    1  ZINC000151991096   -0.1200
     18 C18        -1.6371   -0.4479   44.9392 C.ar    1  ZINC000151991096   -0.0700
     19 C19        -1.4039   -0.2886   46.3064 C.ar    1  ZINC000151991096   -0.0200
     20 C20        -0.9942   -1.4071   47.1014 C.1     1  ZINC000151991096    0.2400
     21 N21        -0.6692   -2.2943   47.7319 N.1     1  ZINC000151991096   -0.4000
     22 C22        -2.4819    3.2024   50.9360 C.ar    1  ZINC000151991096   -0.2200
     23 C23        -3.3917    3.2241   51.9694 C.ar    1  ZINC000151991096   -0.0100
     24 C24        -8.8445    0.9608   53.6302 C.3     1  ZINC000151991096    0.0700
     25 H25        -9.5448    0.9362   54.4650 H       1  ZINC000151991096    0.1000
     26 C26        -8.2309   -0.4401   53.4199 C.3     1  ZINC000151991096   -0.1500
     27 C27        -9.0970   -1.0090   52.2631 C.3     1  ZINC000151991096   -0.1600
     28 C28        -9.3789    0.2772   51.4466 C.3     1  ZINC000151991096    0.0500
     29 O29        -9.5349    1.3181   52.4271 O.3     1  ZINC000151991096   -0.3700
     30 H30        -8.6119    3.2268   56.1709 H       1  ZINC000151991096    0.0500
     31 H31        -9.6532    4.4349   55.3806 H       1  ZINC000151991096    0.0500
     32 H32       -10.0181    2.7007   55.2149 H       1  ZINC000151991096    0.0600
     33 H33        -8.9516    3.5862   53.1589 H       1  ZINC000151991096    0.0700
     34 H34        -7.5454    4.1124   54.1150 H       1  ZINC000151991096    0.0700
     35 H35        -7.0129    1.5779   51.9566 H       1  ZINC000151991096    0.4000
     36 H36        -5.7126    1.1084   50.6733 H       1  ZINC000151991096    0.1300
     37 H37        -4.0852    1.0860   48.8326 H       1  ZINC000151991096    0.1400
     38 H38        -0.2710    1.0857   48.5759 H       1  ZINC000151991096    0.0800
     39 H39        -1.8578    0.3590   48.9256 H       1  ZINC000151991096    0.0800
     40 H40        -2.1134    3.0068   46.5812 H       1  ZINC000151991096    0.1400
     41 H41        -2.5106    2.7168   44.1708 H       1  ZINC000151991096    0.1400
     42 H42        -2.2085    0.5130   43.1207 H       1  ZINC000151991096    0.1400
     43 H43        -1.5051   -1.4149   44.4766 H       1  ZINC000151991096    0.1400
     44 H44        -1.5754    3.7857   51.0032 H       1  ZINC000151991096    0.1300
     45 H45        -3.1978    3.8212   52.8482 H       1  ZINC000151991096    0.1400
     46 H46        -7.1854   -0.3648   53.1209 H       1  ZINC000151991096    0.0800
     47 H47        -8.3357   -1.0484   54.3183 H       1  ZINC000151991096    0.0900
     48 H48        -8.5367   -1.7341   51.6728 H       1  ZINC000151991096    0.0800
     49 H49       -10.0217   -1.4443   52.6421 H       1  ZINC000151991096    0.0800
     50 H50        -8.5388    0.4994   50.7885 H       1  ZINC000151991096    0.0600
     51 H51       -10.2950    0.1644   50.8669 H       1  ZINC000151991096    0.0900
@<TRIPOS>BOND
     1     1     2    1
     2     1    30    1
     3     1    31    1
     4     1    32    1
     5     2     3    1
     6     2    33    1
     7     2    34    1
     8     3     4    1
     9     3     5    1
    10     3    24    1
    11     5     6   am
    12     5    35    1
    13     6     7    2
    14     6     8    1
    15     8    23   ar
    16     8     9   ar
    17     9    10   ar
    18     9    36    1
    19    10    11   ar
    20    10    37    1
    21    11    12    1
    22    11    22   ar
    23    12    13    1
    24    13    14    1
    25    13    38    1
    26    13    39    1
    27    14    19   ar
    28    14    15   ar
    29    15    16   ar
    30    15    40    1
    31    16    17   ar
    32    16    41    1
    33    17    18   ar
    34    17    42    1
    35    18    19   ar
    36    18    43    1
    37    19    20    1
    38    20    21    3
    39    22    23   ar
    40    22    44    1
    41    23    45    1
    42    24    25    1
    43    24    29    1
    44    24    26    1
    45    26    27    1
    46    26    46    1
    47    26    47    1
    48    27    28    1
    49    27    48    1
    50    27    49    1
    51    28    29    1
    52    28    50    1
    53    28    51    1
@<TRIPOS>SUBSTRUCTURE
     1 ZINC000151991096        1 TEMP              0 ****  ****    0 ROOT


##########                                Name:    ZINC000967287417
##########                DOCK_Rotatable_Bonds:                   7
##########                         Heavy_Atoms:                  25
##########                    Molecular_Weight:             347.414
##########                DOCK_Rotatable_Bonds:                   7
##########                       Formal_Charge:          -0.0200002
##########                     HBond_Acceptors:                   7
##########                        HBond_Donors:                   1
##########                         Heavy_Atoms:                  25
##########                          Grid_Score:          -31.204538
##########                     Grid_vdw_energy:          -30.762894
##########                      Grid_es_energy:           -0.441644
##########           Internal_energy_repulsive:           11.716668

@<TRIPOS>MOLECULE
ZINC000967287417
 50 52 1 0 0
SMALL
USER_CHARGES


@<TRIPOS>ATOM
      1 C1         -9.3224   -1.4051   52.4129 C.3     1  ZINC000967287417    0.0300
      2 O2         -8.3692   -0.3506   52.2666 O.3     1  ZINC000967287417   -0.3900
      3 C3         -7.1195   -0.7692   51.7144 C.3     1  ZINC000967287417    0.1400
      4 C4         -6.1738    0.4031   51.6658 C.2     1  ZINC000967287417    0.0100
      5 C5         -6.1735    1.4498   52.5205 C.2     1  ZINC000967287417   -0.1900
      6 C6         -5.1378    2.3089   52.1211 C.2     1  ZINC000967287417   -0.1200
      7 C7         -4.5514    1.7358   51.0292 C.2     1  ZINC000967287417   -0.0700
      8 C8         -3.4201    2.2818   50.2724 C.2     1  ZINC000967287417    0.6100
      9 O9         -2.9839    3.3855   50.5417 O.2     1  ZINC000967287417   -0.5200
     10 N10        -2.8636    1.5614   49.2786 N.am    1  ZINC000967287417   -0.7000
     11 C11        -1.7324    2.1061   48.5237 C.3     1  ZINC000967287417    0.1600
     12 H12        -1.8368    3.1880   48.4417 H       1  ZINC000967287417    0.1000
     13 C13        -0.4264    1.7724   49.2483 C.3     1  ZINC000967287417    0.0400
     14 N14        -0.2755    0.3146   49.3413 N.3     1  ZINC000967287417   -0.5300
     15 C15         0.8967   -0.0426   50.1515 C.3     1  ZINC000967287417    0.1300
     16 C16         2.0424    0.8745   49.8090 C.2     1  ZINC000967287417    0.0200
     17 N17         2.7228    0.8916   48.6993 N.2     1  ZINC000967287417   -0.3500
     18 O18         3.5831    1.7411   48.7175 O.3     1  ZINC000967287417    0.1000
     19 C19         3.5841    2.4166   49.8752 C.2     1  ZINC000967287417   -0.0300
     20 C20         4.5076    3.5431   50.2617 C.3     1  ZINC000967287417   -0.0800
     21 C21         2.5873    1.8910   50.6267 C.2     1  ZINC000967287417   -0.2400
     22 C22        -0.2004   -0.2974   48.0086 C.3     1  ZINC000967287417    0.0500
     23 C23        -1.4996   -0.0254   47.2470 C.3     1  ZINC000967287417   -0.1100
     24 C24        -1.7068    1.4874   47.1234 C.3     1  ZINC000967287417   -0.1000
     25 H25        -0.8888    1.9213   46.5483 H       1  ZINC000967287417    0.0900
     26 C26        -3.0340    1.7655   46.4146 C.3     1  ZINC000967287417   -0.1500
     27 O27        -5.1916    0.5764   50.7719 O.3     1  ZINC000967287417   -0.1600
     28 H28        -8.9185   -2.1707   53.0754 H       1  ZINC000967287417    0.0500
     29 H29       -10.2434   -1.0061   52.8380 H       1  ZINC000967287417    0.0900
     30 H30        -9.5325   -1.8430   51.4371 H       1  ZINC000967287417    0.0500
     31 H31        -6.6922   -1.5552   52.3370 H       1  ZINC000967287417    0.0900
     32 H32        -7.2776   -1.1506   50.7055 H       1  ZINC000967287417    0.0700
     33 H33        -6.8440    1.5975   53.3541 H       1  ZINC000967287417    0.1600
     34 H34        -4.8588    3.2425   52.5870 H       1  ZINC000967287417    0.1600
     35 H35        -3.2120    0.6821   49.0631 H       1  ZINC000967287417    0.4100
     36 H36         0.4138    2.1899   48.6935 H       1  ZINC000967287417    0.0500
     37 H37        -0.4477    2.2000   50.2508 H       1  ZINC000967287417    0.0900
     38 H38         0.6526    0.0603   51.2088 H       1  ZINC000967287417    0.0600
     39 H39         1.1819   -1.0737   49.9431 H       1  ZINC000967287417    0.0900
     40 H40         5.2003    3.7419   49.4440 H       1  ZINC000967287417    0.0800
     41 H41         3.9217    4.4388   50.4676 H       1  ZINC000967287417    0.0900
     42 H42         5.0688    3.2630   51.1532 H       1  ZINC000967287417    0.0900
     43 H43         2.2835    2.1775   51.6228 H       1  ZINC000967287417    0.1700
     44 H44         0.6387    0.1297   47.4595 H       1  ZINC000967287417    0.0400
     45 H45        -0.0575   -1.3732   48.1106 H       1  ZINC000967287417    0.0800
     46 H46        -1.4374   -0.4665   46.2521 H       1  ZINC000967287417    0.0700
     47 H47        -2.3376   -0.4644   47.7885 H       1  ZINC000967287417    0.0700
     48 H48        -3.8515    1.3332   46.9916 H       1  ZINC000967287417    0.0600
     49 H49        -3.1806    2.8421   46.3271 H       1  ZINC000967287417    0.0600
     50 H50        -3.0153    1.3194   45.4203 H       1  ZINC000967287417    0.0600
@<TRIPOS>BOND
     1     1     2    1
     2     1    28    1
     3     1    29    1
     4     1    30    1
     5     2     3    1
     6     3     4    1
     7     3    31    1
     8     3    32    1
     9     4    27    1
    10     4     5    2
    11     5     6    1
    12     5    33    1
    13     6     7    2
    14     6    34    1
    15     7     8    1
    16     7    27    1
    17     8     9    2
    18     8    10   am
    19    10    11    1
    20    10    35    1
    21    11    12    1
    22    11    24    1
    23    11    13    1
    24    13    14    1
    25    13    36    1
    26    13    37    1
    27    14    15    1
    28    14    22    1
    29    15    16    1
    30    15    38    1
    31    15    39    1
    32    16    21    1
    33    16    17    2
    34    17    18    1
    35    18    19    1
    36    19    20    1
    37    19    21    2
    38    20    40    1
    39    20    41    1
    40    20    42    1
    41    21    43    1
    42    22    23    1
    43    22    44    1
    44    22    45    1
    45    23    24    1
    46    23    46    1
    47    23    47    1
    48    24    25    1
    49    24    26    1
    50    26    48    1
    51    26    49    1
    52    26    50    1
@<TRIPOS>SUBSTRUCTURE
     1 ZINC000967287417        1 TEMP              0 ****  ****    0 ROOT


##########                                Name:    ZINC000847397179
##########                DOCK_Rotatable_Bonds:                   9
##########                         Heavy_Atoms:                  25
##########                    Molecular_Weight:             350.461
##########                DOCK_Rotatable_Bonds:                   9
##########                       Formal_Charge:          0.00999979
##########                     HBond_Acceptors:                   7
##########                        HBond_Donors:                   2
##########                         Heavy_Atoms:                  25
##########                          Grid_Score:          -31.196680
##########                     Grid_vdw_energy:          -29.726656
##########                      Grid_es_energy:           -1.470025
##########           Internal_energy_repulsive:           87.281860

@<TRIPOS>MOLECULE
ZINC000847397179
 55 56 1 0 0
SMALL
USER_CHARGES


@<TRIPOS>ATOM
      1 C1         -7.0938    1.9837   55.6581 C.3     1  ZINC000847397179   -0.1500
      2 C2         -7.5739    0.8263   54.7801 C.3     1  ZINC000847397179   -0.1000
      3 H3         -6.7937    0.0675   54.7206 H       1  ZINC000847397179    0.0900
      4 C4         -7.8868    1.3473   53.3760 C.3     1  ZINC000847397179   -0.0200
      5 C5         -7.6082    0.2651   52.3650 C.2     1  ZINC000847397179    0.0100
      6 C6         -6.5022   -0.5012   52.3105 C.2     1  ZINC000847397179   -0.0500
      7 N7         -6.6595   -1.3486   51.2470 N.pl3   1  ZINC000847397179   -0.5700
      8 C8         -7.8569   -1.0703   50.6882 C.2     1  ZINC000847397179    0.1800
      9 N9         -8.4208   -0.1076   51.3651 N.2     1  ZINC000847397179   -0.4900
     10 C10        -8.8172    0.2226   55.3806 C.2     1  ZINC000847397179    0.5200
     11 O11        -9.4641   -0.5864   54.7497 O.2     1  ZINC000847397179   -0.5300
     12 N12        -9.2103    0.5815   56.6187 N.am    1  ZINC000847397179   -0.7400
     13 C13       -10.4200   -0.0041   57.2018 C.3     1  ZINC000847397179    0.1200
     14 C14       -10.0306   -1.1385   58.1517 C.3     1  ZINC000847397179    0.1500
     15 H15        -9.5996   -1.9611   57.5812 H       1  ZINC000847397179    0.0800
     16 C16        -9.0062   -0.6272   59.1695 C.3     1  ZINC000847397179   -0.1300
     17 C17        -8.7256   -1.7234   60.1999 C.3     1  ZINC000847397179   -0.1200
     18 C18       -10.0171   -2.0676   60.9455 C.3     1  ZINC000847397179   -0.1400
     19 C19       -11.0529   -2.5953   59.9479 C.3     1  ZINC000847397179    0.1100
     20 N20       -11.2220   -1.6092   58.8713 N.am    1  ZINC000847397179   -0.5900
     21 C21       -12.4456   -1.1421   58.5539 C.2     1  ZINC000847397179    0.6500
     22 O22       -12.5722   -0.3270   57.6617 O.2     1  ZINC000847397179   -0.5500
     23 O23       -13.5279   -1.5787   59.2253 O.3     1  ZINC000847397179   -0.3600
     24 C24       -14.5148   -2.3284   58.4689 C.3     1  ZINC000847397179    0.1400
     25 C25       -13.8124   -3.4085   57.6438 C.3     1  ZINC000847397179   -0.1800
     26 C26       -15.5044   -2.9860   59.4329 C.3     1  ZINC000847397179   -0.1400
     27 C27       -15.2678   -1.3807   57.5330 C.3     1  ZINC000847397179   -0.1800
     28 H28        -7.8739    2.7425   55.7177 H       1  ZINC000847397179    0.0500
     29 H29        -6.8708    1.6125   56.6585 H       1  ZINC000847397179    0.0500
     30 H30        -6.1944    2.4204   55.2238 H       1  ZINC000847397179    0.1000
     31 H31        -8.9368    1.6347   53.3207 H       1  ZINC000847397179    0.0800
     32 H32        -7.2613    2.2140   53.1622 H       1  ZINC000847397179    0.0800
     33 H33        -5.6539   -0.4559   52.9774 H       1  ZINC000847397179    0.1800
     34 H34        -6.0285   -2.0229   50.9501 H       1  ZINC000847397179    0.4200
     35 H35        -8.2797   -1.5653   49.8264 H       1  ZINC000847397179    0.2100
     36 H36        -8.6923    1.2277   57.1237 H       1  ZINC000847397179    0.3900
     37 H37       -10.9645    0.7617   57.7542 H       1  ZINC000847397179    0.0800
     38 H38       -11.0529   -0.3975   56.4063 H       1  ZINC000847397179    0.1000
     39 H39        -8.0813   -0.3661   58.6551 H       1  ZINC000847397179    0.0800
     40 H40        -9.4032    0.2535   59.6744 H       1  ZINC000847397179    0.0700
     41 H41        -8.3520   -2.6124   59.6917 H       1  ZINC000847397179    0.0700
     42 H42        -7.9786   -1.3708   60.9110 H       1  ZINC000847397179    0.0700
     43 H43        -9.8118   -2.8317   61.6952 H       1  ZINC000847397179    0.0800
     44 H44       -10.4046   -1.1733   61.4336 H       1  ZINC000847397179    0.0700
     45 H45       -10.7061   -3.5383   59.5255 H       1  ZINC000847397179    0.0700
     46 H46       -12.0049   -2.7482   60.4562 H       1  ZINC000847397179    0.0900
     47 H47       -13.2760   -4.0837   58.3105 H       1  ZINC000847397179    0.0600
     48 H48       -14.5533   -3.9713   57.0759 H       1  ZINC000847397179    0.0700
     49 H49       -13.1073   -2.9400   56.9571 H       1  ZINC000847397179    0.0900
     50 H50       -16.0050   -2.2165   60.0207 H       1  ZINC000847397179    0.0700
     51 H51       -16.2453   -3.5487   58.8650 H       1  ZINC000847397179    0.0800
     52 H52       -14.9681   -3.6612   60.0996 H       1  ZINC000847397179    0.0700
     53 H53       -14.5627   -0.9122   56.8462 H       1  ZINC000847397179    0.0900
     54 H54       -16.0086   -1.9434   56.9651 H       1  ZINC000847397179    0.0700
     55 H55       -15.7682   -0.6112   58.1208 H       1  ZINC000847397179    0.0600
@<TRIPOS>BOND
     1     1     2    1
     2     1    28    1
     3     1    29    1
     4     1    30    1
     5     2     3    1
     6     2     4    1
     7     2    10    1
     8     4     5    1
     9     4    31    1
    10     4    32    1
    11     5     9    1
    12     5     6    2
    13     6     7    1
    14     6    33    1
    15     7     8    1
    16     7    34    1
    17     8     9    2
    18     8    35    1
    19    10    11    2
    20    10    12   am
    21    12    13    1
    22    12    36    1
    23    13    14    1
    24    13    37    1
    25    13    38    1
    26    14    15    1
    27    14    20    1
    28    14    16    1
    29    16    17    1
    30    16    39    1
    31    16    40    1
    32    17    18    1
    33    17    41    1
    34    17    42    1
    35    18    19    1
    36    18    43    1
    37    18    44    1
    38    19    20    1
    39    19    45    1
    40    19    46    1
    41    20    21   am
    42    21    22    2
    43    21    23    1
    44    23    24    1
    45    24    25    1
    46    24    26    1
    47    24    27    1
    48    25    47    1
    49    25    48    1
    50    25    49    1
    51    26    50    1
    52    26    51    1
    53    26    52    1
    54    27    53    1
    55    27    54    1
    56    27    55    1
@<TRIPOS>SUBSTRUCTURE
     1 ZINC000847397179        1 TEMP              0 ****  ****    0 ROOT


##########                                Name:    ZINC000929592477
##########                DOCK_Rotatable_Bonds:                   7
##########                         Heavy_Atoms:                  28
##########                    Molecular_Weight:             399.517
##########                DOCK_Rotatable_Bonds:                   7
##########                       Formal_Charge:         -8.9407e-08
##########                     HBond_Acceptors:                   8
##########                        HBond_Donors:                   3
##########                         Heavy_Atoms:                  28
##########                          Grid_Score:          -31.189341
##########                     Grid_vdw_energy:          -31.876106
##########                      Grid_es_energy:            0.686765
##########           Internal_energy_repulsive:           13.473453

@<TRIPOS>MOLECULE
ZINC000929592477
 53 56 1 0 0
SMALL
USER_CHARGES


@<TRIPOS>ATOM
      1 O1         -5.3911   -0.2685   51.4094 O.2     1  ZINC000929592477   -0.5700
      2 C2         -5.9221    0.6926   51.9320 C.2     1  ZINC000929592477    0.7100
      3 N3         -5.3139    1.8950   51.9063 N.am    1  ZINC000929592477   -0.6800
      4 C4         -4.0666    2.0366   51.2820 C.ar    1  ZINC000929592477    0.1600
      5 C5         -3.0021    2.5952   51.9767 C.ar    1  ZINC000929592477   -0.1300
      6 C6         -1.7739    2.7353   51.3623 C.ar    1  ZINC000929592477   -0.0800
      7 C7         -1.6028    2.3167   50.0485 C.ar    1  ZINC000929592477   -0.1000
      8 S8         -0.0353    2.4945   49.2639 S.3     1  ZINC000929592477   -0.1100
      9 C9         -0.0848    1.2320   47.9624 C.3     1  ZINC000929592477   -0.0800
     10 C10         1.2346    1.2376   47.1511 C.3     1  ZINC000929592477   -0.1200
     11 C11         1.2790   -0.1936   46.5607 C.3     1  ZINC000929592477   -0.1200
     12 C12         0.7252   -1.0862   47.6904 C.3     1  ZINC000929592477   -0.1200
     13 C13        -0.1421   -0.1799   48.5816 C.3     1  ZINC000929592477   -0.1000
     14 C14        -2.6681    1.7573   49.3538 C.ar    1  ZINC000929592477   -0.1200
     15 C15        -3.8946    1.6129   49.9709 C.ar    1  ZINC000929592477   -0.1000
     16 N16        -7.1211    0.5564   52.5321 N.am    1  ZINC000929592477   -0.7300
     17 C17        -7.7822   -0.7506   52.5600 C.3     1  ZINC000929592477    0.1500
     18 H18        -7.0642   -1.5396   52.7835 H       1  ZINC000929592477    0.1200
     19 C19        -8.5035   -1.0298   51.2149 C.3     1  ZINC000929592477   -0.1400
     20 C20        -9.8409   -0.2746   51.4167 C.3     1  ZINC000929592477    0.1100
     21 N21       -10.1776   -0.4764   52.8377 N.pl3   1  ZINC000929592477   -0.6000
     22 C22       -11.4447   -0.4147   53.3806 C.2     1  ZINC000929592477    0.4600
     23 C23       -12.5470   -0.2405   52.5603 C.2     1  ZINC000929592477   -0.4000
     24 C24       -13.8165   -0.1831   53.1517 C.2     1  ZINC000929592477    0.5300
     25 O25       -14.8155   -0.0310   52.4668 O.2     1  ZINC000929592477   -0.5500
     26 N26       -13.9135   -0.2994   54.4927 N.am    1  ZINC000929592477   -0.6400
     27 C27       -12.8060   -0.4674   55.2425 C.2     1  ZINC000929592477    0.4100
     28 N28       -11.6180   -0.5285   54.7068 N.2     1  ZINC000929592477   -0.5700
     29 C29        -8.9368   -0.7568   53.5840 C.3     1  ZINC000929592477    0.1100
     30 H30        -5.7392    2.6625   52.3197 H       1  ZINC000929592477    0.4100
     31 H31        -3.1352    2.9207   52.9979 H       1  ZINC000929592477    0.1300
     32 H32        -0.9462    3.1705   51.9025 H       1  ZINC000929592477    0.1300
     33 H33        -0.9394    1.3954   47.3059 H       1  ZINC000929592477    0.1000
     34 H34         1.1960    1.9825   46.3562 H       1  ZINC000929592477    0.0700
     35 H35         2.0892    1.4126   47.8046 H       1  ZINC000929592477    0.0800
     36 H36         0.6459   -0.2611   45.6759 H       1  ZINC000929592477    0.0700
     37 H37         2.3041   -0.4752   46.3198 H       1  ZINC000929592477    0.0700
     38 H38         0.1176   -1.8873   47.2694 H       1  ZINC000929592477    0.0700
     39 H39         1.5464   -1.5057   48.2714 H       1  ZINC000929592477    0.0700
     40 H40         0.2584   -0.1595   49.5952 H       1  ZINC000929592477    0.0700
     41 H41        -1.1703   -0.5411   48.5931 H       1  ZINC000929592477    0.0800
     42 H42        -2.5356    1.4317   48.3326 H       1  ZINC000929592477    0.1300
     43 H43        -4.7227    1.1777   49.4311 H       1  ZINC000929592477    0.1400
     44 H44        -7.5464    1.3240   52.9456 H       1  ZINC000929592477    0.4000
     45 H45        -7.9428   -0.6145   50.3774 H       1  ZINC000929592477    0.0900
     46 H46        -8.6744   -2.0974   51.0775 H       1  ZINC000929592477    0.0900
     47 H47        -9.7131    0.7867   51.2041 H       1  ZINC000929592477    0.0700
     48 H48       -10.6163   -0.6994   50.7791 H       1  ZINC000929592477    0.0800
     49 H49       -12.4311   -0.1507   51.4904 H       1  ZINC000929592477    0.1500
     50 H50       -14.7840   -0.2615   54.9189 H       1  ZINC000929592477    0.4200
     51 H51       -12.9050   -0.5581   56.3142 H       1  ZINC000929592477    0.2100
     52 H52        -9.0051   -1.7333   54.0634 H       1  ZINC000929592477    0.0900
     53 H53        -8.7728    0.0164   54.3345 H       1  ZINC000929592477    0.0800
@<TRIPOS>BOND
     1     1     2    2
     2     2     3   am
     3     2    16   am
     4     3     4    1
     5     3    30    1
     6     4    15   ar
     7     4     5   ar
     8     5     6   ar
     9     5    31    1
    10     6     7   ar
    11     6    32    1
    12     7     8    1
    13     7    14   ar
    14     8     9    1
    15     9    13    1
    16     9    10    1
    17     9    33    1
    18    10    11    1
    19    10    34    1
    20    10    35    1
    21    11    12    1
    22    11    36    1
    23    11    37    1
    24    12    13    1
    25    12    38    1
    26    12    39    1
    27    13    40    1
    28    13    41    1
    29    14    15   ar
    30    14    42    1
    31    15    43    1
    32    16    17    1
    33    16    44    1
    34    17    18    1
    35    17    29    1
    36    17    19    1
    37    19    20    1
    38    19    45    1
    39    19    46    1
    40    20    21    1
    41    20    47    1
    42    20    48    1
    43    21    22    1
    44    21    29    1
    45    22    28    1
    46    22    23    2
    47    23    24    1
    48    23    49    1
    49    24    25    2
    50    24    26   am
    51    26    27    1
    52    26    50    1
    53    27    28    2
    54    27    51    1
    55    29    52    1
    56    29    53    1
@<TRIPOS>SUBSTRUCTURE
     1 ZINC000929592477        1 TEMP              0 ****  ****    0 ROOT


##########                                Name:    ZINC000550952205
##########                DOCK_Rotatable_Bonds:                   7
##########                         Heavy_Atoms:                  28
##########                    Molecular_Weight:             407.484
##########                DOCK_Rotatable_Bonds:                   7
##########                       Formal_Charge:        -2.68221e-07
##########                     HBond_Acceptors:                   8
##########                        HBond_Donors:                   2
##########                         Heavy_Atoms:                  28
##########                          Grid_Score:          -31.186563
##########                     Grid_vdw_energy:          -31.583462
##########                      Grid_es_energy:            0.396899
##########           Internal_energy_repulsive:            5.480175

@<TRIPOS>MOLECULE
ZINC000550952205
 51 54 1 0 0
SMALL
USER_CHARGES


@<TRIPOS>ATOM
      1 O1         -4.4470    3.9141   51.3004 O.2     1  ZINC000550952205   -0.5100
      2 C2         -4.5511    2.7171   51.1295 C.2     1  ZINC000550952205    0.5100
      3 N3         -3.8813    2.1190   50.1245 N.am    1  ZINC000550952205   -0.7000
      4 C4         -3.0320    2.9149   49.2346 C.3     1  ZINC000550952205    0.1200
      5 C5         -1.9187    2.0317   48.6678 C.3     1  ZINC000550952205   -0.0900
      6 H6         -1.2953    2.6172   47.9917 H       1  ZINC000550952205    0.1000
      7 C7         -1.0770    1.4945   49.7935 C.3     1  ZINC000550952205   -0.1300
      8 C8          0.4051    1.3430   49.4010 C.3     1  ZINC000550952205   -0.1200
      9 C9          0.5922    0.7689   47.9837 C.3     1  ZINC000550952205   -0.1300
     10 C10        -0.3634   -0.3548   47.6868 C.3     1  ZINC000550952205   -0.1500
     11 C11        -1.6015    0.2296   46.9765 C.3     1  ZINC000550952205    0.3000
     12 F12        -1.1816    1.1960   46.0561 F       1  ZINC000550952205   -0.2000
     13 F13        -2.2556   -0.7974   46.2876 F       1  ZINC000550952205   -0.2000
     14 C14        -2.5380    0.8439   47.9034 C.3     1  ZINC000550952205   -0.1700
     15 C15        -5.4167    1.9059   52.0365 C.2     1  ZINC000550952205    0.5100
     16 O16        -5.3829    0.6937   51.9839 O.2     1  ZINC000550952205   -0.4900
     17 N17        -6.2354    2.5198   52.9137 N.am    1  ZINC000550952205   -0.6400
     18 C18        -7.0457    1.7605   53.7627 C.ar    1  ZINC000550952205    0.1500
     19 C19        -8.0527    0.9561   53.2315 C.ar    1  ZINC000550952205   -0.1200
     20 C20        -8.8491    0.2114   54.0458 C.ar    1  ZINC000550952205   -0.0400
     21 C21        -8.6701    0.2398   55.4439 C.ar    1  ZINC000550952205    0.0800
     22 N22        -9.3443   -0.4144   56.4094 N.2     1  ZINC000550952205   -0.4700
     23 C23        -8.9889   -0.2209   57.6226 C.2     1  ZINC000550952205    0.1200
     24 C24        -9.6412   -0.8773   58.8120 C.3     1  ZINC000550952205   -0.1100
     25 C25        -9.8157   -2.3969   58.7728 C.3     1  ZINC000550952205   -0.1500
     26 C26        -8.7666   -1.7707   59.6938 C.3     1  ZINC000550952205   -0.1500
     27 S27        -7.6831    0.8727   57.7263 S.3     1  ZINC000550952205    0.1200
     28 C28        -7.6576    1.0481   55.9743 C.ar    1  ZINC000550952205   -0.1700
     29 C29        -6.8455    1.8017   55.1313 C.ar    1  ZINC000550952205   -0.0700
     30 H30        -3.9614    1.1617   49.9903 H       1  ZINC000550952205    0.4200
     31 H31        -3.6337    3.3110   48.4166 H       1  ZINC000550952205    0.0800
     32 H32        -2.5918    3.7399   49.7945 H       1  ZINC000550952205    0.0800
     33 H33        -1.1493    2.1736   50.6430 H       1  ZINC000550952205    0.0700
     34 H34        -1.4648    0.5198   50.0896 H       1  ZINC000550952205    0.0700
     35 H35         0.8835    2.3213   49.4501 H       1  ZINC000550952205    0.0700
     36 H36         0.8921    0.6798   50.1160 H       1  ZINC000550952205    0.0700
     37 H37         0.4359    1.5660   47.2568 H       1  ZINC000550952205    0.0800
     38 H38         1.6129    0.3994   47.8848 H       1  ZINC000550952205    0.0700
     39 H39         0.1203   -1.0850   47.0380 H       1  ZINC000550952205    0.0900
     40 H40        -0.6672   -0.8328   48.6181 H       1  ZINC000550952205    0.1000
     41 H41        -2.8610    0.0952   48.6269 H       1  ZINC000550952205    0.1000
     42 H42        -3.4081    1.1926   47.3469 H       1  ZINC000550952205    0.1000
     43 H43        -6.2623    3.4885   52.9559 H       1  ZINC000550952205    0.4300
     44 H44        -8.2027    0.9239   52.1624 H       1  ZINC000550952205    0.1400
     45 H45        -9.6249   -0.4060   53.6175 H       1  ZINC000550952205    0.1400
     46 H46       -10.4200   -0.2934   59.3028 H       1  ZINC000550952205    0.1300
     47 H47       -10.7095   -2.8130   59.2378 H       1  ZINC000550952205    0.1000
     48 H48        -9.4587   -2.9217   57.8868 H       1  ZINC000550952205    0.1100
     49 H49        -7.7192   -1.8838   59.4137 H       1  ZINC000550952205    0.1000
     50 H50        -8.9700   -1.7750   60.7647 H       1  ZINC000550952205    0.1100
     51 H51        -6.0623    2.4194   55.5450 H       1  ZINC000550952205    0.1400
@<TRIPOS>BOND
     1     1     2    2
     2     2     3   am
     3     2    15    1
     4     3     4    1
     5     3    30    1
     6     4     5    1
     7     4    31    1
     8     4    32    1
     9     5     6    1
    10     5    14    1
    11     5     7    1
    12     7     8    1
    13     7    33    1
    14     7    34    1
    15     8     9    1
    16     8    35    1
    17     8    36    1
    18     9    10    1
    19     9    37    1
    20     9    38    1
    21    10    11    1
    22    10    39    1
    23    10    40    1
    24    11    12    1
    25    11    13    1
    26    11    14    1
    27    14    41    1
    28    14    42    1
    29    15    16    2
    30    15    17   am
    31    17    18    1
    32    17    43    1
    33    18    29   ar
    34    18    19   ar
    35    19    20   ar
    36    19    44    1
    37    20    21   ar
    38    20    45    1
    39    21    28   ar
    40    21    22    1
    41    22    23    2
    42    23    24    1
    43    23    27    1
    44    24    26    1
    45    24    25    1
    46    24    46    1
    47    25    26    1
    48    25    47    1
    49    25    48    1
    50    26    49    1
    51    26    50    1
    52    27    28    1
    53    28    29   ar
    54    29    51    1
@<TRIPOS>SUBSTRUCTURE
     1 ZINC000550952205        1 TEMP              0 ****  ****    0 ROOT


##########                                Name:    ZINC001289445798
##########                DOCK_Rotatable_Bonds:                  10
##########                         Heavy_Atoms:                  25
##########                    Molecular_Weight:             352.434
##########                DOCK_Rotatable_Bonds:                  10
##########                       Formal_Charge:          0.00999932
##########                     HBond_Acceptors:                   8
##########                        HBond_Donors:                   2
##########                         Heavy_Atoms:                  25
##########                          Grid_Score:          -31.145477
##########                     Grid_vdw_energy:          -29.957560
##########                      Grid_es_energy:           -1.187917
##########           Internal_energy_repulsive:           42.913609

@<TRIPOS>MOLECULE
ZINC001289445798
 53 54 1 0 0
SMALL
USER_CHARGES


@<TRIPOS>ATOM
      1 C1          0.5811   -0.9705   48.2569 C.3     1  ZINC001289445798   -0.1500
      2 C2         -0.3439    0.1613   47.8051 C.3     1  ZINC001289445798    0.0600
      3 O3          0.3573    1.0175   46.9010 O.3     1  ZINC001289445798   -0.3700
      4 C4         -0.4275    2.1017   46.4005 C.3     1  ZINC001289445798    0.1100
      5 H5          0.1830    3.0038   46.3602 H       1  ZINC001289445798    0.0700
      6 C6         -1.6230    2.3358   47.3262 C.3     1  ZINC001289445798   -0.1400
      7 C7         -1.1418    2.9161   48.6311 C.2     1  ZINC001289445798    0.5400
      8 O8          0.0052    3.2950   48.7400 O.2     1  ZINC001289445798   -0.5200
      9 N9         -1.9859    3.0140   49.6771 N.am    1  ZINC001289445798   -0.6200
     10 C10        -3.3931    2.5882   49.6854 C.3     1  ZINC001289445798    0.1000
     11 C11        -3.9481    2.8675   51.0980 C.3     1  ZINC001289445798    0.1400
     12 H12        -4.4668    3.8258   51.1261 H       1  ZINC001289445798    0.1200
     13 N13        -4.8375    1.7860   51.5287 N.am    1  ZINC001289445798   -0.7200
     14 C14        -5.8668    2.0500   52.3577 C.2     1  ZINC001289445798    0.6000
     15 O15        -6.0565    3.1857   52.7495 O.2     1  ZINC001289445798   -0.5100
     16 C16        -6.7614    0.9639   52.7891 C.2     1  ZINC001289445798   -0.0500
     17 C17        -7.5483    0.9384   53.9274 C.2     1  ZINC001289445798   -0.1400
     18 C18        -8.2075   -0.2925   53.8939 C.2     1  ZINC001289445798    0.0000
     19 N19        -7.8242   -0.9239   52.8138 N.2     1  ZINC001289445798   -0.2700
     20 N20        -6.9860   -0.2186   52.1431 N.pl3   1  ZINC001289445798   -0.3800
     21 C21        -2.6671    2.9110   51.9723 C.3     1  ZINC001289445798    0.0700
     22 H22        -2.3501    1.9061   52.2512 H       1  ZINC001289445798    0.0900
     23 O23        -2.8655    3.7226   53.1317 O.3     1  ZINC001289445798   -0.3700
     24 C24        -2.2879    3.1852   54.3231 C.3     1  ZINC001289445798    0.0300
     25 C25        -1.6494    3.5598   51.0047 C.3     1  ZINC001289445798    0.0800
     26 C26        -0.9292    1.7623   44.9956 C.3     1  ZINC001289445798   -0.1100
     27 C27         0.1124    0.9035   44.2755 C.3     1  ZINC001289445798   -0.1500
     28 C28        -2.2456    0.9892   45.0971 C.3     1  ZINC001289445798   -0.1500
     29 H29         1.4528   -0.5493   48.7576 H       1  ZINC001289445798    0.0600
     30 H30         0.0463   -1.6236   48.9464 H       1  ZINC001289445798    0.0700
     31 H31         0.9033   -1.5450   47.3884 H       1  ZINC001289445798    0.0600
     32 H32        -1.2157   -0.2599   47.3043 H       1  ZINC001289445798    0.0500
     33 H33        -0.6661    0.7358   48.6736 H       1  ZINC001289445798    0.0500
     34 H34        -2.3176    3.0305   46.8539 H       1  ZINC001289445798    0.1100
     35 H35        -2.1280    1.3883   47.5142 H       1  ZINC001289445798    0.1000
     36 H36        -3.9569    3.1574   48.9463 H       1  ZINC001289445798    0.0800
     37 H37        -3.4593    1.5228   49.4651 H       1  ZINC001289445798    0.0800
     38 H38        -4.6856    0.8800   51.2174 H       1  ZINC001289445798    0.4000
     39 H39        -7.6342    1.7070   54.6813 H       1  ZINC001289445798    0.1700
     40 H40        -8.9088   -0.6583   54.6293 H       1  ZINC001289445798    0.1900
     41 H41        -6.5706   -0.4875   51.3088 H       1  ZINC001289445798    0.4400
     42 H42        -2.4822    3.8596   55.1572 H       1  ZINC001289445798    0.0900
     43 H43        -2.7291    2.2109   54.5333 H       1  ZINC001289445798    0.0400
     44 H44        -1.2119    3.0754   54.1878 H       1  ZINC001289445798    0.0500
     45 H45        -0.6322    3.2860   51.2845 H       1  ZINC001289445798    0.0900
     46 H46        -1.7648    4.6437   51.0036 H       1  ZINC001289445798    0.0900
     47 H47        -1.0911    2.6832   44.4351 H       1  ZINC001289445798    0.0800
     48 H48         0.2741   -0.0174   44.8359 H       1  ZINC001289445798    0.0600
     49 H49        -0.2452    0.6616   43.2746 H       1  ZINC001289445798    0.0600
     50 H50         1.0502    1.4543   44.2031 H       1  ZINC001289445798    0.0600
     51 H51        -3.0145    1.6350   45.5211 H       1  ZINC001289445798    0.0600
     52 H52        -2.5528    0.6626   44.1036 H       1  ZINC001289445798    0.0600
     53 H53        -2.1075    0.1191   45.7389 H       1  ZINC001289445798    0.0500
@<TRIPOS>BOND
     1     1     2    1
     2     1    29    1
     3     1    30    1
     4     1    31    1
     5     2     3    1
     6     2    32    1
     7     2    33    1
     8     3     4    1
     9     4     5    1
    10     4     6    1
    11     4    26    1
    12     6     7    1
    13     6    34    1
    14     6    35    1
    15     7     8    2
    16     7     9   am
    17     9    25    1
    18     9    10    1
    19    10    11    1
    20    10    36    1
    21    10    37    1
    22    11    12    1
    23    11    13    1
    24    11    21    1
    25    13    14   am
    26    13    38    1
    27    14    15    2
    28    14    16    1
    29    16    20    1
    30    16    17    2
    31    17    18    1
    32    17    39    1
    33    18    19    2
    34    18    40    1
    35    19    20    1
    36    20    41    1
    37    21    22    1
    38    21    23    1
    39    21    25    1
    40    23    24    1
    41    24    42    1
    42    24    43    1
    43    24    44    1
    44    25    45    1
    45    25    46    1
    46    26    27    1
    47    26    28    1
    48    26    47    1
    49    27    48    1
    50    27    49    1
    51    27    50    1
    52    28    51    1
    53    28    52    1
    54    28    53    1
@<TRIPOS>SUBSTRUCTURE
     1 ZINC001289445798        1 TEMP              0 ****  ****    0 ROOT


##########                                Name:    ZINC000579444893
##########                DOCK_Rotatable_Bonds:                   8
##########                         Heavy_Atoms:                  26
##########                    Molecular_Weight:             365.494
##########                DOCK_Rotatable_Bonds:                   8
##########                       Formal_Charge:         -0.00999993
##########                     HBond_Acceptors:                   7
##########                        HBond_Donors:                   1
##########                         Heavy_Atoms:                  26
##########                          Grid_Score:          -31.136095
##########                     Grid_vdw_energy:          -31.221079
##########                      Grid_es_energy:            0.084984
##########           Internal_energy_repulsive:           32.856823

@<TRIPOS>MOLECULE
ZINC000579444893
 58 60 1 0 0
SMALL
USER_CHARGES


@<TRIPOS>ATOM
      1 C1         -5.9841   -1.2086   52.0382 C.3     1  ZINC000579444893   -0.1600
      2 C2         -6.5846    0.1405   52.4388 C.3     1  ZINC000579444893    0.1700
      3 H3         -6.5823    0.2311   53.5249 H       1  ZINC000579444893    0.0900
      4 N4         -5.7863    1.2223   51.8569 N.am    1  ZINC000579444893   -0.7400
      5 C5         -5.6716    2.3987   52.5045 C.2     1  ZINC000579444893    0.7100
      6 O6         -6.2320    2.5626   53.5711 O.2     1  ZINC000579444893   -0.5900
      7 N7         -4.9359    3.3934   51.9699 N.am    1  ZINC000579444893   -0.6300
      8 C8         -4.8099    4.6714   52.6748 C.3     1  ZINC000579444893    0.0800
      9 C9         -4.2622    3.1965   50.6840 C.3     1  ZINC000579444893    0.1100
     10 C10        -2.8850    2.5731   50.9200 C.3     1  ZINC000579444893    0.0600
     11 H11        -2.9857    1.6674   51.5179 H       1  ZINC000579444893    0.1000
     12 C12        -1.9694    3.5818   51.6450 C.3     1  ZINC000579444893   -0.1600
     13 C13        -0.5901    3.3461   50.9750 C.3     1  ZINC000579444893    0.0800
     14 H14        -0.0786    2.4944   51.4234 H       1  ZINC000579444893    0.1000
     15 F15         0.2032    4.4965   51.0432 F       1  ZINC000579444893   -0.2000
     16 C16        -1.0006    3.0400   49.5130 C.3     1  ZINC000579444893    0.0200
     17 N17        -2.2511    2.2533   49.6277 N.3     1  ZINC000579444893   -0.5000
     18 C18        -3.1594    2.5425   48.5100 C.3     1  ZINC000579444893    0.1000
     19 C19        -2.4516    2.2782   47.2061 C.2     1  ZINC000579444893    0.0800
     20 C20        -2.3427    3.1399   46.1686 C.2     1  ZINC000579444893   -0.2500
     21 C21        -1.6120    2.5065   45.1579 C.2     1  ZINC000579444893    0.0400
     22 N22        -1.2937    1.3075   45.5739 N.2     1  ZINC000579444893   -0.2900
     23 N23        -1.8080    1.1418   46.8663 N.pl3   1  ZINC000579444893   -0.3700
     24 C24        -1.6780   -0.0569   47.6985 C.3     1  ZINC000579444893    0.0900
     25 C25        -8.0219    0.2326   51.9224 C.3     1  ZINC000579444893   -0.1000
     26 C26        -8.7949   -1.0726   52.2351 C.3     1  ZINC000579444893   -0.1200
     27 C27       -10.2717   -0.6057   52.2257 C.3     1  ZINC000579444893   -0.1300
     28 C28       -10.2308    0.7922   52.8768 C.3     1  ZINC000579444893   -0.1300
     29 C29        -8.8002    1.3252   52.6840 C.3     1  ZINC000579444893   -0.1200
     30 H30        -4.9330   -1.2380   52.3250 H       1  ZINC000579444893    0.0600
     31 H31        -6.5216   -2.0102   52.5448 H       1  ZINC000579444893    0.0700
     32 H32        -6.0702   -1.3386   50.9595 H       1  ZINC000579444893    0.0500
     33 H33        -5.3402    1.0920   51.0054 H       1  ZINC000579444893    0.4000
     34 H34        -4.0051    4.6048   53.4068 H       1  ZINC000579444893    0.0600
     35 H35        -4.5848    5.4611   51.9580 H       1  ZINC000579444893    0.0800
     36 H36        -5.7463    4.8992   53.1842 H       1  ZINC000579444893    0.0700
     37 H37        -4.8593    2.5327   50.0589 H       1  ZINC000579444893    0.0900
     38 H38        -4.1449    4.1581   50.1843 H       1  ZINC000579444893    0.0900
     39 H39        -2.3107    4.6030   51.4757 H       1  ZINC000579444893    0.1100
     40 H40        -1.9224    3.3620   52.7115 H       1  ZINC000579444893    0.0800
     41 H41        -1.1823    3.9664   48.9680 H       1  ZINC000579444893    0.0600
     42 H42        -0.2283    2.4522   49.0172 H       1  ZINC000579444893    0.0900
     43 H43        -4.0393    1.9031   48.5820 H       1  ZINC000579444893    0.1100
     44 H44        -3.4656    3.5878   48.5518 H       1  ZINC000579444893    0.0500
     45 H45        -2.7485    4.1399   46.1278 H       1  ZINC000579444893    0.1500
     46 H46        -1.3555    2.9333   44.1996 H       1  ZINC000579444893    0.1800
     47 H47        -0.8021    0.0395   48.3401 H       1  ZINC000579444893    0.0800
     48 H48        -2.5696   -0.1695   48.3153 H       1  ZINC000579444893    0.0800
     49 H49        -1.5655   -0.9326   47.0592 H       1  ZINC000579444893    0.0900
     50 H50        -8.0291    0.4354   50.8514 H       1  ZINC000579444893    0.0800
     51 H51        -8.6210   -1.8196   51.4607 H       1  ZINC000579444893    0.0700
     52 H52        -8.5185   -1.4597   53.2158 H       1  ZINC000579444893    0.0700
     53 H53       -10.6444   -0.5396   51.2035 H       1  ZINC000579444893    0.0700
     54 H54       -10.8898   -1.2831   52.8149 H       1  ZINC000579444893    0.0700
     55 H55       -10.9450    1.4536   52.3865 H       1  ZINC000579444893    0.0600
     56 H56       -10.4606    0.7159   53.9396 H       1  ZINC000579444893    0.0600
     57 H57        -8.3359    1.5076   53.6531 H       1  ZINC000579444893    0.0600
     58 H58        -8.8202    2.2453   52.1000 H       1  ZINC000579444893    0.0600
@<TRIPOS>BOND
     1     1     2    1
     2     1    30    1
     3     1    31    1
     4     1    32    1
     5     2     3    1
     6     2     4    1
     7     2    25    1
     8     4     5   am
     9     4    33    1
    10     5     6    2
    11     5     7   am
    12     7     8    1
    13     7     9    1
    14     8    34    1
    15     8    35    1
    16     8    36    1
    17     9    10    1
    18     9    37    1
    19     9    38    1
    20    10    11    1
    21    10    17    1
    22    10    12    1
    23    12    13    1
    24    12    39    1
    25    12    40    1
    26    13    14    1
    27    13    15    1
    28    13    16    1
    29    16    17    1
    30    16    41    1
    31    16    42    1
    32    17    18    1
    33    18    19    1
    34    18    43    1
    35    18    44    1
    36    19    23    1
    37    19    20    2
    38    20    21    1
    39    20    45    1
    40    21    22    2
    41    21    46    1
    42    22    23    1
    43    23    24    1
    44    24    47    1
    45    24    48    1
    46    24    49    1
    47    25    29    1
    48    25    26    1
    49    25    50    1
    50    26    27    1
    51    26    51    1
    52    26    52    1
    53    27    28    1
    54    27    53    1
    55    27    54    1
    56    28    29    1
    57    28    55    1
    58    28    56    1
    59    29    57    1
    60    29    58    1
@<TRIPOS>SUBSTRUCTURE
     1 ZINC000579444893        1 TEMP              0 ****  ****    0 ROOT


##########                                Name:    ZINC001015955459
##########                DOCK_Rotatable_Bonds:                   6
##########                         Heavy_Atoms:                  24
##########                    Molecular_Weight:             347.844
##########                DOCK_Rotatable_Bonds:                   6
##########                       Formal_Charge:          -0.0200002
##########                     HBond_Acceptors:                   6
##########                        HBond_Donors:                   1
##########                         Heavy_Atoms:                  24
##########                          Grid_Score:          -31.134817
##########                     Grid_vdw_energy:          -31.238594
##########                      Grid_es_energy:            0.103777
##########           Internal_energy_repulsive:           16.128746

@<TRIPOS>MOLECULE
ZINC001015955459
 46 48 1 0 0
SMALL
USER_CHARGES


@<TRIPOS>ATOM
      1 C1         -5.6980   -1.0151   51.7181 C.3     1  ZINC001015955459   -0.1500
      2 C2         -6.9038   -0.1091   51.4608 C.3     1  ZINC001015955459   -0.0300
      3 C3         -8.0674   -0.9478   50.9280 C.3     1  ZINC001015955459   -0.1500
      4 C4         -7.3141    0.5587   52.7479 C.2     1  ZINC001015955459    0.0600
      5 C5         -6.8146    1.7194   53.2533 C.2     1  ZINC001015955459   -0.0800
      6 C6         -5.7688    2.5614   52.6443 C.2     1  ZINC001015955459    0.6100
      7 O7         -5.6373    3.7179   52.9970 O.2     1  ZINC001015955459   -0.5300
      8 N8         -4.9584    2.0496   51.6968 N.am    1  ZINC001015955459   -0.7100
      9 C9         -3.9181    2.8857   51.0930 C.3     1  ZINC001015955459    0.1400
     10 H10        -4.3594    3.7818   50.6566 H       1  ZINC001015955459    0.1000
     11 C11        -2.8594    3.2688   52.1475 C.3     1  ZINC001015955459   -0.1300
     12 C12        -1.5357    2.6735   51.6218 C.3     1  ZINC001015955459    0.0200
     13 N13        -1.7379    2.5482   50.1554 N.3     1  ZINC001015955459   -0.4900
     14 C14        -0.8078    1.5690   49.5774 C.3     1  ZINC001015955459    0.0800
     15 C15        -1.1853    1.3036   48.1428 C.ar    1  ZINC001015955459   -0.1100
     16 C16        -1.1552    0.0135   47.6477 C.ar    1  ZINC001015955459   -0.1100
     17 C17        -1.5062   -0.2313   46.3329 C.ar    1  ZINC001015955459   -0.1000
     18 C18        -1.8768    0.8153   45.5101 C.ar    1  ZINC001015955459   -0.1100
     19 C19        -1.9020    2.1077   46.0037 C.ar    1  ZINC001015955459   -0.0300
     20 Cl20       -2.3670    3.4230   44.9705 Cl      1  ZINC001015955459   -0.0700
     21 C21        -1.5560    2.3513   47.3207 C.ar    1  ZINC001015955459   -0.1000
     22 C22        -3.1471    2.0897   50.0181 C.3     1  ZINC001015955459    0.0100
     23 N23        -7.4579    1.9536   54.4291 N.2     1  ZINC001015955459   -0.4600
     24 C24        -8.3118    0.9948   54.6294 C.2     1  ZINC001015955459    0.1800
     25 O25        -8.2422    0.1221   53.6143 O.3     1  ZINC001015955459   -0.1900
     26 H26        -5.9647   -1.7749   52.4527 H       1  ZINC001015955459    0.0600
     27 H27        -5.4013   -1.4981   50.7871 H       1  ZINC001015955459    0.0700
     28 H28        -4.8691   -0.4177   52.0976 H       1  ZINC001015955459    0.0600
     29 H29        -6.6372    0.6507   50.7261 H       1  ZINC001015955459    0.1300
     30 H30        -8.9264   -0.3023   50.7447 H       1  ZINC001015955459    0.0600
     31 H31        -7.7706   -1.4308   49.9970 H       1  ZINC001015955459    0.0700
     32 H32        -8.3340   -1.7075   51.6625 H       1  ZINC001015955459    0.0600
     33 H33        -5.0641    1.1275   51.4147 H       1  ZINC001015955459    0.4100
     34 H34        -2.7812    4.3530   52.2288 H       1  ZINC001015955459    0.0800
     35 H35        -3.1139    2.8348   53.1145 H       1  ZINC001015955459    0.0700
     36 H36        -0.7051    3.3465   51.8348 H       1  ZINC001015955459    0.0900
     37 H37        -1.3563    1.6945   52.0659 H       1  ZINC001015955459    0.0500
     38 H38         0.2074    1.9636   49.6190 H       1  ZINC001015955459    0.0900
     39 H39        -0.8600    0.6396   50.1447 H       1  ZINC001015955459    0.0900
     40 H40        -0.8613   -0.8041   48.2891 H       1  ZINC001015955459    0.1300
     41 H41        -1.4864   -1.2400   45.9477 H       1  ZINC001015955459    0.1300
     42 H42        -2.1465    0.6244   44.4818 H       1  ZINC001015955459    0.1300
     43 H43        -1.5750    3.3600   47.7064 H       1  ZINC001015955459    0.1300
     44 H44        -3.2200    1.0196   50.2122 H       1  ZINC001015955459    0.0700
     45 H45        -3.5296    2.3237   49.0246 H       1  ZINC001015955459    0.0900
     46 H46        -8.9700    0.9116   55.4814 H       1  ZINC001015955459    0.2600
@<TRIPOS>BOND
     1     1     2    1
     2     1    26    1
     3     1    27    1
     4     1    28    1
     5     2     3    1
     6     2     4    1
     7     2    29    1
     8     3    30    1
     9     3    31    1
    10     3    32    1
    11     4    25    1
    12     4     5    2
    13     5     6    1
    14     5    23    1
    15     6     7    2
    16     6     8   am
    17     8     9    1
    18     8    33    1
    19     9    10    1
    20     9    22    1
    21     9    11    1
    22    11    12    1
    23    11    34    1
    24    11    35    1
    25    12    13    1
    26    12    36    1
    27    12    37    1
    28    13    14    1
    29    13    22    1
    30    14    15    1
    31    14    38    1
    32    14    39    1
    33    15    21   ar
    34    15    16   ar
    35    16    17   ar
    36    16    40    1
    37    17    18   ar
    38    17    41    1
    39    18    19   ar
    40    18    42    1
    41    19    20    1
    42    19    21   ar
    43    21    43    1
    44    22    44    1
    45    22    45    1
    46    23    24    2
    47    24    25    1
    48    24    46    1
@<TRIPOS>SUBSTRUCTURE
     1 ZINC001015955459        1 TEMP              0 ****  ****    0 ROOT


##########                                Name:    ZINC000151850193
##########                DOCK_Rotatable_Bonds:                  11
##########                         Heavy_Atoms:                  23
##########                    Molecular_Weight:             328.452
##########                DOCK_Rotatable_Bonds:                  11
##########                       Formal_Charge:            0.039999
##########                     HBond_Acceptors:                   6
##########                        HBond_Donors:                   2
##########                         Heavy_Atoms:                  23
##########                          Grid_Score:          -31.129448
##########                     Grid_vdw_energy:          -30.720060
##########                      Grid_es_energy:           -0.409387
##########           Internal_energy_repulsive:           48.232826

@<TRIPOS>MOLECULE
ZINC000151850193
 55 55 1 0 0
SMALL
USER_CHARGES


@<TRIPOS>ATOM
      1 C1         -1.1779    3.3952   45.2023 C.3     1  ZINC000151850193   -0.1500
      2 C2         -0.5929    1.9829   45.2667 C.3     1  ZINC000151850193   -0.1000
      3 C3         -0.7687    1.4220   46.6793 C.3     1  ZINC000151850193   -0.0800
      4 C4         -0.1553    2.3199   47.7556 C.3     1  ZINC000151850193   -0.1000
      5 C5          1.3487    2.4558   47.5100 C.3     1  ZINC000151850193   -0.1500
      6 C6         -2.2077    0.9784   46.9913 C.3     1  ZINC000151850193    0.1400
      7 H7         -2.9620    1.4929   46.3960 H       1  ZINC000151850193    0.1000
      8 N8         -2.5216    0.9684   48.4222 N.am    1  ZINC000151850193   -0.7000
      9 C9         -3.3355    1.9096   48.9402 C.2     1  ZINC000151850193    0.5200
     10 O10        -3.8067    2.7657   48.2218 O.2     1  ZINC000151850193   -0.5300
     11 C11        -3.6597    1.8984   50.4118 C.3     1  ZINC000151850193   -0.1500
     12 C12        -4.8267    0.9432   50.6697 C.3     1  ZINC000151850193    0.1500
     13 N13        -5.6621    1.4734   51.7501 N.am    1  ZINC000151850193   -0.7100
     14 C14        -6.7401    0.7817   52.1696 C.2     1  ZINC000151850193    0.6500
     15 O15        -7.0199   -0.2808   51.6508 O.2     1  ZINC000151850193   -0.5600
     16 O16        -7.5070    1.2681   53.1636 O.3     1  ZINC000151850193   -0.3700
     17 C17        -8.8328    0.6955   53.3138 C.3     1  ZINC000151850193    0.1400
     18 C18        -9.5747    0.7695   51.9778 C.3     1  ZINC000151850193   -0.1800
     19 C19        -8.7107   -0.7662   53.7490 C.3     1  ZINC000151850193   -0.1400
     20 C20        -9.6101    1.4797   54.3730 C.3     1  ZINC000151850193   -0.1800
     21 C21        -1.8193   -0.4014   46.4343 C.3     1  ZINC000151850193   -0.1700
     22 C22        -0.3682   -0.0570   46.8092 C.3     1  ZINC000151850193    0.0700
     23 H23         0.3626   -0.3783   46.0669 H       1  ZINC000151850193    0.0800
     24 O24        -0.0139   -0.4413   48.1391 O.3     1  ZINC000151850193   -0.3700
     25 C25         0.7188   -1.6658   48.2147 C.3     1  ZINC000151850193    0.0300
     26 H26        -2.2456    3.3564   45.4183 H       1  ZINC000151850193    0.0600
     27 H27        -0.6811    4.0281   45.9376 H       1  ZINC000151850193    0.0600
     28 H28        -1.0237    3.8071   44.2050 H       1  ZINC000151850193    0.0600
     29 H29        -1.1119    1.3418   44.5540 H       1  ZINC000151850193    0.0700
     30 H30         0.4680    2.0173   45.0190 H       1  ZINC000151850193    0.0700
     31 H31        -0.6205    3.3049   47.7156 H       1  ZINC000151850193    0.0700
     32 H32        -0.3246    1.8777   48.7374 H       1  ZINC000151850193    0.0700
     33 H33         1.8247    1.4816   47.6221 H       1  ZINC000151850193    0.0500
     34 H34         1.5197    2.8297   46.5004 H       1  ZINC000151850193    0.0500
     35 H35         1.7734    3.1529   48.2324 H       1  ZINC000151850193    0.0500
     36 H36        -2.1437    0.2844   48.9968 H       1  ZINC000151850193    0.4100
     37 H37        -2.7869    1.5655   50.9735 H       1  ZINC000151850193    0.1000
     38 H38        -3.9355    2.9035   50.7309 H       1  ZINC000151850193    0.1000
     39 H39        -5.4238    0.8460   49.7629 H       1  ZINC000151850193    0.0800
     40 H40        -4.4395   -0.0345   50.9562 H       1  ZINC000151850193    0.0800
     41 H41        -5.4395    2.3222   52.1634 H       1  ZINC000151850193    0.4100
     42 H42        -9.0209    0.2108   51.2232 H       1  ZINC000151850193    0.0600
     43 H43       -10.5700    0.3397   52.0906 H       1  ZINC000151850193    0.0700
     44 H44        -9.6617    1.8109   51.6677 H       1  ZINC000151850193    0.0900
     45 H45        -8.1822   -0.8190   54.7008 H       1  ZINC000151850193    0.0700
     46 H46        -9.7060   -1.1961   53.8618 H       1  ZINC000151850193    0.0800
     47 H47        -8.1570   -1.3249   52.9945 H       1  ZINC000151850193    0.0700
     48 H48        -9.6970    2.5210   54.0629 H       1  ZINC000151850193    0.0900
     49 H49       -10.6054    1.0499   54.4857 H       1  ZINC000151850193    0.0700
     50 H50        -9.0815    1.4269   55.3248 H       1  ZINC000151850193    0.0600
     51 H51        -2.2316   -1.2341   47.0042 H       1  ZINC000151850193    0.0800
     52 H52        -1.9812   -0.5004   45.3610 H       1  ZINC000151850193    0.1000
     53 H53         0.1199   -2.4741   47.7951 H       1  ZINC000151850193    0.0400
     54 H54         1.6461   -1.5699   47.6498 H       1  ZINC000151850193    0.0400
     55 H55         0.9494   -1.8876   49.2566 H       1  ZINC000151850193    0.0900
@<TRIPOS>BOND
     1     1     2    1
     2     1    26    1
     3     1    27    1
     4     1    28    1
     5     2     3    1
     6     2    29    1
     7     2    30    1
     8     3    22    1
     9     3     4    1
    10     3     6    1
    11     4     5    1
    12     4    31    1
    13     4    32    1
    14     5    33    1
    15     5    34    1
    16     5    35    1
    17     6     7    1
    18     6     8    1
    19     6    21    1
    20     8     9   am
    21     8    36    1
    22     9    10    2
    23     9    11    1
    24    11    12    1
    25    11    37    1
    26    11    38    1
    27    12    13    1
    28    12    39    1
    29    12    40    1
    30    13    14   am
    31    13    41    1
    32    14    15    2
    33    14    16    1
    34    16    17    1
    35    17    18    1
    36    17    19    1
    37    17    20    1
    38    18    42    1
    39    18    43    1
    40    18    44    1
    41    19    45    1
    42    19    46    1
    43    19    47    1
    44    20    48    1
    45    20    49    1
    46    20    50    1
    47    21    22    1
    48    21    51    1
    49    21    52    1
    50    22    23    1
    51    22    24    1
    52    24    25    1
    53    25    53    1
    54    25    54    1
    55    25    55    1
@<TRIPOS>SUBSTRUCTURE
     1 ZINC000151850193        1 TEMP              0 ****  ****    0 ROOT


##########                                Name:    ZINC000028372981
##########                DOCK_Rotatable_Bonds:                   7
##########                         Heavy_Atoms:                  28
##########                    Molecular_Weight:             380.443
##########                DOCK_Rotatable_Bonds:                   7
##########                       Formal_Charge:         1.78814e-07
##########                     HBond_Acceptors:                   6
##########                        HBond_Donors:                   1
##########                         Heavy_Atoms:                  28
##########                          Grid_Score:          -31.121050
##########                     Grid_vdw_energy:          -31.288542
##########                      Grid_es_energy:            0.167491
##########           Internal_energy_repulsive:           23.364340

@<TRIPOS>MOLECULE
ZINC000028372981
 52 54 1 0 0
SMALL
USER_CHARGES


@<TRIPOS>ATOM
      1 C1        -10.9876   -1.5665   61.5855 C.3     1  ZINC000028372981   -0.1800
      2 C2        -10.3996   -1.0406   60.3016 C.2     1  ZINC000028372981    0.5200
      3 O3         -9.9264    0.0753   60.2637 O.2     1  ZINC000028372981   -0.5100
      4 N4        -10.3997   -1.8105   59.1953 N.am    1  ZINC000028372981   -0.5500
      5 C5        -10.9397   -3.1704   59.1201 C.3     1  ZINC000028372981    0.1000
      6 C6        -10.7066   -3.6176   57.6678 C.3     1  ZINC000028372981   -0.0900
      7 C7        -10.0296   -2.4351   57.0112 C.ar    1  ZINC000028372981   -0.1500
      8 C8         -9.5884   -2.2525   55.7198 C.ar    1  ZINC000028372981    0.0000
      9 C9         -8.9794   -1.0492   55.3523 C.ar    1  ZINC000028372981   -0.1600
     10 C10        -8.5004   -0.8503   53.9719 C.2     1  ZINC000028372981    0.5200
     11 O11        -9.0978   -1.3565   53.0427 O.2     1  ZINC000028372981   -0.5000
     12 O12        -7.4004   -0.1072   53.7409 O.3     1  ZINC000028372981   -0.3200
     13 C13        -6.9950    0.0577   52.3564 C.3     1  ZINC000028372981    0.0700
     14 H14        -7.8757    0.0323   51.7145 H       1  ZINC000028372981    0.1200
     15 C15        -6.0454   -1.0761   51.9645 C.3     1  ZINC000028372981   -0.1700
     16 C16        -6.2922    1.3808   52.1930 C.2     1  ZINC000028372981    0.5200
     17 O17        -6.8061    2.3962   52.6120 O.2     1  ZINC000028372981   -0.4900
     18 N18        -5.0925    1.4355   51.5812 N.am    1  ZINC000028372981   -0.6600
     19 C19        -4.4400    2.6639   51.4294 C.ar    1  ZINC000028372981    0.1500
     20 C20        -4.4040    3.5675   52.4831 C.ar    1  ZINC000028372981   -0.1300
     21 C21        -3.7586    4.7792   52.3303 C.ar    1  ZINC000028372981   -0.1000
     22 C22        -3.1483    5.0923   51.1298 C.ar    1  ZINC000028372981   -0.1300
     23 C23        -3.1819    4.1944   50.0785 C.ar    1  ZINC000028372981   -0.0700
     24 C24        -2.5150    4.5396   48.7720 C.3     1  ZINC000028372981   -0.1200
     25 C25        -3.8263    2.9818   50.2246 C.ar    1  ZINC000028372981   -0.1200
     26 C26        -3.8633    2.0043   49.0783 C.3     1  ZINC000028372981   -0.1200
     27 C27        -8.8330   -0.0335   56.3016 C.ar    1  ZINC000028372981   -0.0200
     28 C28        -9.2810   -0.2224   57.5866 C.ar    1  ZINC000028372981   -0.1800
     29 C29        -9.8860   -1.4282   57.9575 C.ar    1  ZINC000028372981    0.1900
     30 H30       -10.4507   -2.4649   61.8900 H       1  ZINC000028372981    0.1000
     31 H31       -10.8978   -0.8084   62.3636 H       1  ZINC000028372981    0.1000
     32 H32       -12.0397   -1.8067   61.4319 H       1  ZINC000028372981    0.1000
     33 H33       -10.4070   -3.8271   59.8080 H       1  ZINC000028372981    0.0900
     34 H34       -12.0054   -3.1671   59.3484 H       1  ZINC000028372981    0.0900
     35 H35       -10.0570   -4.4924   57.6387 H       1  ZINC000028372981    0.1000
     36 H36       -11.6567   -3.8338   57.1793 H       1  ZINC000028372981    0.1000
     37 H37        -9.7091   -3.0408   54.9916 H       1  ZINC000028372981    0.1400
     38 H38        -5.1648   -1.0508   52.6064 H       1  ZINC000028372981    0.0800
     39 H39        -6.5538   -2.0331   52.0827 H       1  ZINC000028372981    0.0800
     40 H40        -5.7411   -0.9523   50.9252 H       1  ZINC000028372981    0.0800
     41 H41        -4.6816    0.6233   51.2460 H       1  ZINC000028372981    0.4100
     42 H42        -4.8764    3.3213   53.4227 H       1  ZINC000028372981    0.1400
     43 H43        -3.7303    5.4823   53.1494 H       1  ZINC000028372981    0.1300
     44 H44        -2.6440    6.0402   51.0129 H       1  ZINC000028372981    0.1200
     45 H45        -1.4797    4.1989   48.7913 H       1  ZINC000028372981    0.0700
     46 H46        -3.0434    4.0503   47.9539 H       1  ZINC000028372981    0.0700
     47 H47        -2.5394    5.6196   48.6259 H       1  ZINC000028372981    0.0700
     48 H48        -2.9978    1.3441   49.1356 H       1  ZINC000028372981    0.0700
     49 H49        -4.7765    1.4119   49.1352 H       1  ZINC000028372981    0.0600
     50 H50        -3.8423    2.5497   48.1348 H       1  ZINC000028372981    0.0800
     51 H51        -8.3676    0.9007   56.0244 H       1  ZINC000028372981    0.1500
     52 H52        -9.1650    0.5656   58.3159 H       1  ZINC000028372981    0.1500
@<TRIPOS>BOND
     1     1     2    1
     2     1    30    1
     3     1    31    1
     4     1    32    1
     5     2     3    2
     6     2     4   am
     7     4    29    1
     8     4     5    1
     9     5     6    1
    10     5    33    1
    11     5    34    1
    12     6     7    1
    13     6    35    1
    14     6    36    1
    15     7    29   ar
    16     7     8   ar
    17     8     9   ar
    18     8    37    1
    19     9    10    1
    20     9    27   ar
    21    10    11    2
    22    10    12    1
    23    12    13    1
    24    13    14    1
    25    13    15    1
    26    13    16    1
    27    15    38    1
    28    15    39    1
    29    15    40    1
    30    16    17    2
    31    16    18   am
    32    18    19    1
    33    18    41    1
    34    19    25   ar
    35    19    20   ar
    36    20    21   ar
    37    20    42    1
    38    21    22   ar
    39    21    43    1
    40    22    23   ar
    41    22    44    1
    42    23    24    1
    43    23    25   ar
    44    24    45    1
    45    24    46    1
    46    24    47    1
    47    25    26    1
    48    26    48    1
    49    26    49    1
    50    26    50    1
    51    27    28   ar
    52    27    51    1
    53    28    29   ar
    54    28    52    1
@<TRIPOS>SUBSTRUCTURE
     1 ZINC000028372981        1 TEMP              0 ****  ****    0 ROOT


##########                                Name:    ZINC000572257265
##########                DOCK_Rotatable_Bonds:                  11
##########                         Heavy_Atoms:                  24
##########                    Molecular_Weight:             393.509
##########                DOCK_Rotatable_Bonds:                  11
##########                       Formal_Charge:          -0.0100002
##########                     HBond_Acceptors:                  11
##########                        HBond_Donors:                   3
##########                         Heavy_Atoms:                  24
##########                          Grid_Score:          -31.085897
##########                     Grid_vdw_energy:          -29.532654
##########                      Grid_es_energy:           -1.553244
##########           Internal_energy_repulsive:            7.770760

@<TRIPOS>MOLECULE
ZINC000572257265
 43 43 1 0 0
SMALL
USER_CHARGES


@<TRIPOS>ATOM
      1 C1          3.3931    3.3323   43.1031 C.3     1  ZINC000572257265   -0.1300
      2 S2          2.3620    1.8949   43.5046 S.3     1  ZINC000572257265   -0.2200
      3 C3          0.8322    2.6496   44.1217 C.3     1  ZINC000572257265   -0.1300
      4 C4         -0.1587    1.5501   44.5091 C.3     1  ZINC000572257265    0.1500
      5 C5         -1.4768    2.1858   44.9559 C.3     1  ZINC000572257265   -0.1500
      6 O6         -0.3959    0.7042   43.3821 O.3     1  ZINC000572257265   -0.5400
      7 C7          0.4223    0.7208   45.6560 C.3     1  ZINC000572257265    0.0900
      8 N8         -0.4237   -0.4526   45.8876 N.am    1  ZINC000572257265   -1.1100
      9 S9         -0.5730   -1.0776   47.4139 S.o2    1  ZINC000572257265    2.6900
     10 O10        -1.5621   -2.0949   47.3359 O.2     1  ZINC000572257265   -0.9400
     11 O11         0.7479   -1.3120   47.8823 O.2     1  ZINC000572257265   -0.9500
     12 C12        -1.2447    0.1924   48.4340 C.ar    1  ZINC000572257265   -0.6300
     13 C13        -0.5729    0.5905   49.5746 C.ar    1  ZINC000572257265   -0.0400
     14 C14        -1.0998    1.5868   50.3750 C.ar    1  ZINC000572257265   -0.0400
     15 C15        -2.2985    2.1853   50.0344 C.ar    1  ZINC000572257265   -0.6300
     16 S16        -2.9705    3.4548   51.0550 S.o2    1  ZINC000572257265    2.7000
     17 O17        -2.3628    3.3075   52.3310 O.2     1  ZINC000572257265   -0.9400
     18 O18        -2.9060    4.6551   50.2972 O.2     1  ZINC000572257265   -0.9400
     19 N19        -4.5787    3.1179   51.2614 N.am    1  ZINC000572257265   -1.1200
     20 C20        -4.9889    1.8581   51.8866 C.3     1  ZINC000572257265    0.2200
     21 C21        -6.2672    2.0528   52.5901 C.1     1  ZINC000572257265    0.1900
     22 N22        -7.2536    2.2031   53.1330 N.1     1  ZINC000572257265   -0.3900
     23 C23        -2.9698    1.7881   48.8931 C.ar    1  ZINC000572257265   -0.0400
     24 C24        -2.4408    0.7944   48.0907 C.ar    1  ZINC000572257265   -0.0400
     25 H25         3.5526    3.9276   44.0022 H       1  ZINC000572257265    0.0800
     26 H26         4.3542    2.9934   42.7164 H       1  ZINC000572257265    0.1000
     27 H27         2.8920    3.9398   42.3494 H       1  ZINC000572257265    0.0800
     28 H28         1.0558    3.2616   44.9955 H       1  ZINC000572257265    0.0900
     29 H29         0.3954    3.2744   43.3426 H       1  ZINC000572257265    0.0900
     30 H30        -1.8906    2.7765   44.1387 H       1  ZINC000572257265    0.0800
     31 H31        -2.1828    1.4024   45.2318 H       1  ZINC000572257265    0.0700
     32 H32        -1.2959    2.8311   45.8155 H       1  ZINC000572257265    0.0800
     33 H33        -0.7651    1.1640   42.6158 H       1  ZINC000572257265    0.3800
     34 H34         1.4299    0.3966   45.3959 H       1  ZINC000572257265    0.0900
     35 H35         0.4580    1.3272   46.5610 H       1  ZINC000572257265    0.0800
     36 H36        -0.8965   -0.8634   45.1469 H       1  ZINC000572257265    0.4300
     37 H37         0.3636    0.1230   49.8406 H       1  ZINC000572257265    0.1500
     38 H38        -0.5753    1.8973   51.2665 H       1  ZINC000572257265    0.1500
     39 H39        -5.2491    3.7547   50.9683 H       1  ZINC000572257265    0.4300
     40 H40        -5.1095    1.0938   51.1188 H       1  ZINC000572257265    0.1100
     41 H41        -4.2270    1.5409   52.5985 H       1  ZINC000572257265    0.1300
     42 H42        -3.9060    2.2559   48.6269 H       1  ZINC000572257265    0.1600
     43 H43        -2.9652    0.4841   47.1990 H       1  ZINC000572257265    0.1500
@<TRIPOS>BOND
     1     1     2    1
     2     1    25    1
     3     1    26    1
     4     1    27    1
     5     2     3    1
     6     3     4    1
     7     3    28    1
     8     3    29    1
     9     4     5    1
    10     4     6    1
    11     4     7    1
    12     5    30    1
    13     5    31    1
    14     5    32    1
    15     6    33    1
    16     7     8    1
    17     7    34    1
    18     7    35    1
    19     8     9   am
    20     8    36    1
    21     9    10    2
    22     9    11    2
    23     9    12    1
    24    12    24   ar
    25    12    13   ar
    26    13    14   ar
    27    13    37    1
    28    14    15   ar
    29    14    38    1
    30    15    16    1
    31    15    23   ar
    32    16    17    2
    33    16    18    2
    34    16    19   am
    35    19    20    1
    36    19    39    1
    37    20    21    1
    38    20    40    1
    39    20    41    1
    40    21    22    3
    41    23    24   ar
    42    23    42    1
    43    24    43    1
@<TRIPOS>SUBSTRUCTURE
     1 ZINC000572257265        1 TEMP              0 ****  ****    0 ROOT


##########                                Name:    ZINC001217683559
##########                DOCK_Rotatable_Bonds:                   3
##########                         Heavy_Atoms:                  25
##########                    Molecular_Weight:             397.234
##########                DOCK_Rotatable_Bonds:                   3
##########                       Formal_Charge:          0.00999987
##########                     HBond_Acceptors:                   7
##########                        HBond_Donors:                   0
##########                         Heavy_Atoms:                  25
##########                          Grid_Score:          -31.081461
##########                     Grid_vdw_energy:          -31.645878
##########                      Grid_es_energy:            0.564416
##########           Internal_energy_repulsive:           14.574923

@<TRIPOS>MOLECULE
ZINC001217683559
 38 42 1 0 0
SMALL
USER_CHARGES


@<TRIPOS>ATOM
      1 Br1        -7.9901   -0.4614   51.0357 Br      1  ZINC001217683559    0.0100
      2 C2         -8.3574   -0.5465   52.8888 C.ar    1  ZINC001217683559   -0.1200
      3 C3         -9.3109   -1.4257   53.3767 C.ar    1  ZINC001217683559   -0.0500
      4 C4         -9.5473   -1.4539   54.7430 C.ar    1  ZINC001217683559   -0.1500
      5 C5         -8.8306   -0.6106   55.5729 C.ar    1  ZINC001217683559    0.1200
      6 N6         -7.9300    0.2160   55.0828 N.ar    1  ZINC001217683559   -0.4400
      7 C7         -7.6690    0.2700   53.7839 C.ar    1  ZINC001217683559    0.2200
      8 C8         -6.6448    1.2182   53.2773 C.2     1  ZINC001217683559    0.2100
      9 N9         -6.4039    2.4179   53.7396 N.2     1  ZINC001217683559   -0.3300
     10 O10        -5.5065    2.9394   53.1123 O.3     1  ZINC001217683559    0.1000
     11 C11        -5.0698    2.1026   52.1579 C.2     1  ZINC001217683559    0.2300
     12 C12        -3.9893    2.3643   51.1849 C.2     1  ZINC001217683559   -0.0600
     13 C13        -3.8661    1.5809   50.0723 C.2     1  ZINC001217683559    0.1800
     14 N14        -2.8773    1.8142   49.1741 N.pl3   1  ZINC001217683559   -0.2900
     15 N15        -2.5109    1.1934   47.9712 N.2     1  ZINC001217683559   -0.3300
     16 C16        -1.4646    1.8360   47.5090 C.2     1  ZINC001217683559    0.2800
     17 C17        -0.7380    1.5058   46.2307 C.3     1  ZINC001217683559   -0.0300
     18 C18        -1.1736    0.1719   45.6015 C.3     1  ZINC001217683559   -0.1200
     19 C19        -1.0834    0.8761   44.2373 C.3     1  ZINC001217683559   -0.1400
     20 C20        -1.3306    2.1943   44.9899 C.3     1  ZINC001217683559   -0.1200
     21 N21        -1.1443    2.8205   48.3371 N.2     1  ZINC001217683559   -0.5300
     22 C22        -1.9869    2.8342   49.3632 C.2     1  ZINC001217683559    0.2900
     23 C23        -2.0916    3.6570   50.5016 C.2     1  ZINC001217683559   -0.1000
     24 C24        -3.0842    3.4301   51.4009 C.2     1  ZINC001217683559   -0.0200
     25 N25        -5.7871    0.9988   52.2591 N.2     1  ZINC001217683559   -0.4300
     26 H26        -9.8578   -2.0740   52.7080 H       1  ZINC001217683559    0.1600
     27 H27       -10.2841   -2.1275   55.1551 H       1  ZINC001217683559    0.1500
     28 H28        -9.0123   -0.6301   56.6374 H       1  ZINC001217683559    0.1800
     29 H29        -4.5606    0.7705   49.9073 H       1  ZINC001217683559    0.1900
     30 H30         0.3428    1.6170   46.3172 H       1  ZINC001217683559    0.1200
     31 H31        -0.4452   -0.6291   45.7283 H       1  ZINC001217683559    0.0700
     32 H32        -2.1859   -0.1284   45.8717 H       1  ZINC001217683559    0.1000
     33 H33        -0.0967    0.8139   43.7782 H       1  ZINC001217683559    0.0800
     34 H34        -1.8877    0.6066   43.5528 H       1  ZINC001217683559    0.0800
     35 H35        -2.3860    2.4469   45.0929 H       1  ZINC001217683559    0.0900
     36 H36        -0.7292    3.0260   44.6229 H       1  ZINC001217683559    0.0700
     37 H37        -1.3909    4.4642   50.6563 H       1  ZINC001217683559    0.1700
     38 H38        -3.1765    4.0530   52.2782 H       1  ZINC001217683559    0.1700
@<TRIPOS>BOND
     1     1     2    1
     2     2     7   ar
     3     2     3   ar
     4     3     4   ar
     5     3    26    1
     6     4     5   ar
     7     4    27    1
     8     5     6   ar
     9     5    28    1
    10     6     7   ar
    11     7     8    1
    12     8    25    1
    13     8     9    2
    14     9    10    1
    15    10    11    1
    16    11    12    1
    17    11    25    2
    18    12    24    1
    19    12    13    2
    20    13    14    1
    21    13    29    1
    22    14    22    1
    23    14    15    1
    24    15    16    2
    25    16    17    1
    26    16    21    1
    27    17    20    1
    28    17    18    1
    29    17    30    1
    30    18    19    1
    31    18    31    1
    32    18    32    1
    33    19    20    1
    34    19    33    1
    35    19    34    1
    36    20    35    1
    37    20    36    1
    38    21    22    2
    39    22    23    1
    40    23    24    2
    41    23    37    1
    42    24    38    1
@<TRIPOS>SUBSTRUCTURE
     1 ZINC001217683559        1 TEMP              0 ****  ****    0 ROOT


##########                                Name:    ZINC000537799672
##########                DOCK_Rotatable_Bonds:                   9
##########                         Heavy_Atoms:                  29
##########                    Molecular_Weight:             401.478
##########                DOCK_Rotatable_Bonds:                   9
##########                       Formal_Charge:        -4.47035e-07
##########                     HBond_Acceptors:                   6
##########                        HBond_Donors:                   1
##########                         Heavy_Atoms:                  29
##########                          Grid_Score:          -31.073540
##########                     Grid_vdw_energy:          -30.350302
##########                      Grid_es_energy:           -0.723239
##########           Internal_energy_repulsive:           13.357209

@<TRIPOS>MOLECULE
ZINC000537799672
 57 59 1 0 0
SMALL
USER_CHARGES


@<TRIPOS>ATOM
      1 C1         -9.7702    2.3773   55.6328 C.3     1  ZINC000537799672    0.0300
      2 O2         -9.4447    1.0896   56.1601 O.3     1  ZINC000537799672   -0.3800
      3 C3        -10.1588    0.0136   55.5484 C.3     1  ZINC000537799672    0.1200
      4 H4        -11.2037    0.2967   55.4213 H       1  ZINC000537799672    0.0900
      5 C5         -9.5533   -0.2901   54.2023 C.ar    1  ZINC000537799672   -0.1300
      6 C6        -10.3602   -0.7078   53.1603 C.ar    1  ZINC000537799672   -0.0600
      7 C7         -9.8060   -0.9866   51.9254 C.ar    1  ZINC000537799672   -0.1500
      8 C8         -8.4421   -0.8473   51.7318 C.ar    1  ZINC000537799672    0.1000
      9 F9         -7.8993   -1.1192   50.5249 F       1  ZINC000537799672   -0.1400
     10 C10        -7.6350   -0.4285   52.7761 C.ar    1  ZINC000537799672   -0.1500
     11 C11        -8.1920   -0.1456   54.0087 C.ar    1  ZINC000537799672   -0.0800
     12 C12       -10.0715   -1.2278   56.4385 C.3     1  ZINC000537799672    0.1600
     13 H13        -9.2043   -1.8217   56.1499 H       1  ZINC000537799672    0.1000
     14 C14       -11.3413   -2.0650   56.2720 C.3     1  ZINC000537799672   -0.1600
     15 N15        -9.9378   -0.8167   57.8383 N.am    1  ZINC000537799672   -0.7100
     16 C16        -9.6308   -1.7285   58.7820 C.2     1  ZINC000537799672    0.5600
     17 O17        -9.4634   -2.8917   58.4716 O.2     1  ZINC000537799672   -0.5400
     18 C18        -9.4976   -1.3139   60.1950 C.ar    1  ZINC000537799672   -0.1400
     19 C19        -8.2586   -1.3877   60.8331 C.ar    1  ZINC000537799672   -0.0800
     20 C20        -8.1410   -0.9989   62.1516 C.ar    1  ZINC000537799672   -0.1300
     21 C21        -9.2478   -0.5369   62.8412 C.ar    1  ZINC000537799672   -0.0900
     22 C22       -10.4792   -0.4616   62.2145 C.ar    1  ZINC000537799672   -0.1100
     23 C23       -10.6092   -0.8415   60.8947 C.ar    1  ZINC000537799672   -0.0300
     24 C24       -11.9510   -0.7584   60.2136 C.3     1  ZINC000537799672    0.1100
     25 O25       -12.9752   -0.5981   61.1971 O.3     1  ZINC000537799672   -0.3800
     26 C26       -14.2994   -0.7843   60.6929 C.3     1  ZINC000537799672    0.0900
     27 C27       -14.6191   -2.2811   60.6333 C.3     1  ZINC000537799672   -0.1800
     28 C28       -16.0653   -2.4679   60.1673 C.3     1  ZINC000537799672    0.0600
     29 O29       -16.9443   -1.7773   61.0575 O.3     1  ZINC000537799672   -0.3800
     30 C30       -16.7230   -0.3668   61.1183 C.3     1  ZINC000537799672    0.0600
     31 C31       -15.3032   -0.0956   61.6225 C.3     1  ZINC000537799672   -0.1500
     32 H32       -10.8451    2.5402   55.7098 H       1  ZINC000537799672    0.0500
     33 H33        -9.2446    3.1455   56.1999 H       1  ZINC000537799672    0.0900
     34 H34        -9.4690    2.4281   54.5865 H       1  ZINC000537799672    0.0400
     35 H35       -11.4240   -0.8163   53.3115 H       1  ZINC000537799672    0.1300
     36 H36       -10.4365   -1.3134   51.1117 H       1  ZINC000537799672    0.1400
     37 H37        -6.5709   -0.3198   52.6262 H       1  ZINC000537799672    0.1400
     38 H38        -7.5627    0.1813   54.8232 H       1  ZINC000537799672    0.1300
     39 H39       -11.4912   -2.2916   55.2164 H       1  ZINC000537799672    0.0700
     40 H40       -11.2397   -2.9945   56.8322 H       1  ZINC000537799672    0.0600
     41 H41       -12.1974   -1.5055   56.6487 H       1  ZINC000537799672    0.0700
     42 H42       -10.0702    0.1118   58.0859 H       1  ZINC000537799672    0.4000
     43 H43        -7.3939   -1.7489   60.2961 H       1  ZINC000537799672    0.1300
     44 H44        -7.1827   -1.0554   62.6467 H       1  ZINC000537799672    0.1300
     45 H45        -9.1504   -0.2341   63.8733 H       1  ZINC000537799672    0.1300
     46 H46       -11.3395   -0.1005   62.7584 H       1  ZINC000537799672    0.1400
     47 H47       -11.9618    0.0947   59.5352 H       1  ZINC000537799672    0.0800
     48 H48       -12.1292   -1.6737   59.6492 H       1  ZINC000537799672    0.0800
     49 H49       -14.3729   -0.3543   59.6940 H       1  ZINC000537799672    0.0600
     50 H50       -13.9440   -2.7701   59.9310 H       1  ZINC000537799672    0.0800
     51 H51       -14.4960   -2.7196   61.6236 H       1  ZINC000537799672    0.0800
     52 H52       -16.1777   -2.0653   59.1605 H       1  ZINC000537799672    0.0500
     53 H53       -16.3119   -3.5297   60.1639 H       1  ZINC000537799672    0.1000
     54 H54       -16.8439    0.0633   60.1240 H       1  ZINC000537799672    0.0500
     55 H55       -17.4434    0.0852   61.8001 H       1  ZINC000537799672    0.1000
     56 H56       -15.1940   -0.4900   62.6328 H       1  ZINC000537799672    0.0800
     57 H57       -15.1174    0.9785   61.6277 H       1  ZINC000537799672    0.0800
@<TRIPOS>BOND
     1     1     2    1
     2     1    32    1
     3     1    33    1
     4     1    34    1
     5     2     3    1
     6     3     4    1
     7     3     5    1
     8     3    12    1
     9     5    11   ar
    10     5     6   ar
    11     6     7   ar
    12     6    35    1
    13     7     8   ar
    14     7    36    1
    15     8     9    1
    16     8    10   ar
    17    10    11   ar
    18    10    37    1
    19    11    38    1
    20    12    13    1
    21    12    14    1
    22    12    15    1
    23    14    39    1
    24    14    40    1
    25    14    41    1
    26    15    16   am
    27    15    42    1
    28    16    17    2
    29    16    18    1
    30    18    23   ar
    31    18    19   ar
    32    19    20   ar
    33    19    43    1
    34    20    21   ar
    35    20    44    1
    36    21    22   ar
    37    21    45    1
    38    22    23   ar
    39    22    46    1
    40    23    24    1
    41    24    25    1
    42    24    47    1
    43    24    48    1
    44    25    26    1
    45    26    31    1
    46    26    27    1
    47    26    49    1
    48    27    28    1
    49    27    50    1
    50    27    51    1
    51    28    29    1
    52    28    52    1
    53    28    53    1
    54    29    30    1
    55    30    31    1
    56    30    54    1
    57    30    55    1
    58    31    56    1
    59    31    57    1
@<TRIPOS>SUBSTRUCTURE
     1 ZINC000537799672        1 TEMP              0 ****  ****    0 ROOT


##########                                Name:    ZINC000822206030
##########                DOCK_Rotatable_Bonds:                   7
##########                         Heavy_Atoms:                  29
##########                    Molecular_Weight:             391.448
##########                DOCK_Rotatable_Bonds:                   7
##########                       Formal_Charge:         -0.00999995
##########                     HBond_Acceptors:                   7
##########                        HBond_Donors:                   1
##########                         Heavy_Atoms:                  29
##########                          Grid_Score:          -31.069214
##########                     Grid_vdw_energy:          -30.911512
##########                      Grid_es_energy:           -0.157701
##########           Internal_energy_repulsive:           20.687054

@<TRIPOS>MOLECULE
ZINC000822206030
 51 55 1 0 0
SMALL
USER_CHARGES


@<TRIPOS>ATOM
      1 C1        -10.3559   -3.5601   57.5609 C.3     1  ZINC000822206030   -0.1300
      2 C2        -11.7715   -3.1963   57.9280 C.ar    1  ZINC000822206030   -0.0400
      3 C3        -12.8179   -4.0048   57.5303 C.ar    1  ZINC000822206030   -0.1500
      4 C4        -14.1191   -3.6707   57.8669 C.ar    1  ZINC000822206030    0.1100
      5 F5        -15.1416   -4.4627   57.4766 F       1  ZINC000822206030   -0.1400
      6 C6        -14.3735   -2.5262   58.6036 C.ar    1  ZINC000822206030   -0.1500
      7 C7        -13.3295   -1.7148   59.0034 C.ar    1  ZINC000822206030   -0.0800
      8 C8        -12.0241   -2.0508   58.6714 C.ar    1  ZINC000822206030    0.1100
      9 N9        -10.9643   -1.2299   59.0760 N.am    1  ZINC000822206030   -0.5600
     10 C10       -10.7492    0.0638   58.4231 C.3     1  ZINC000822206030    0.1500
     11 C11       -10.1357   -0.1553   57.0642 C.ar    1  ZINC000822206030   -0.0900
     12 C12        -8.7855    0.0757   56.8723 C.ar    1  ZINC000822206030   -0.1000
     13 C13        -8.2184   -0.1238   55.6299 C.ar    1  ZINC000822206030   -0.0800
     14 C14        -9.0084   -0.5585   54.5681 C.ar    1  ZINC000822206030   -0.0100
     15 C15        -8.4039   -0.7752   53.2296 C.2     1  ZINC000822206030    0.2200
     16 N16        -7.1305   -0.6538   52.9118 N.2     1  ZINC000822206030   -0.2900
     17 N17        -7.0094   -0.9249   51.6578 N.pl3   1  ZINC000822206030   -0.2300
     18 N18        -8.1654   -1.2141   51.1710 N.2     1  ZINC000822206030   -0.0500
     19 N19        -9.0462   -1.1380   52.1103 N.2     1  ZINC000822206030   -0.2700
     20 C20       -10.3677   -0.7895   54.7667 C.ar    1  ZINC000822206030   -0.0800
     21 C21       -10.9236   -0.5919   56.0146 C.ar    1  ZINC000822206030   -0.0900
     22 C22       -10.1420   -1.6299   60.0662 C.2     1  ZINC000822206030    0.5500
     23 O23       -10.3209   -2.7003   60.6078 O.2     1  ZINC000822206030   -0.5000
     24 C24        -9.0004   -0.7473   60.5004 C.3     1  ZINC000822206030   -0.1900
     25 H25        -8.2537   -0.5342   59.7354 H       1  ZINC000822206030    0.1200
     26 C26        -8.5137   -0.8811   61.9447 C.3     1  ZINC000822206030   -0.1400
     27 C27        -9.3066    0.3558   61.5153 C.3     1  ZINC000822206030   -0.0900
     28 H28        -8.7613    1.2946   61.4184 H       1  ZINC000822206030    0.1100
     29 C29       -10.7484    0.4786   62.0127 C.3     1  ZINC000822206030   -0.1100
     30 C30       -11.0576    1.5923   63.0151 C.3     1  ZINC000822206030   -0.2000
     31 C31       -11.5463    1.7066   61.5697 C.3     1  ZINC000822206030   -0.1200
     32 H32        -9.9294   -4.1920   58.3399 H       1  ZINC000822206030    0.0900
     33 H33       -10.3533   -4.0995   56.6137 H       1  ZINC000822206030    0.0700
     34 H34        -9.7610   -2.6519   57.4635 H       1  ZINC000822206030    0.0700
     35 H35       -12.6216   -4.8981   56.9560 H       1  ZINC000822206030    0.1400
     36 H36       -15.3889   -2.2676   58.8655 H       1  ZINC000822206030    0.1400
     37 H37       -13.5284   -0.8220   59.5776 H       1  ZINC000822206030    0.1400
     38 H38       -11.7039    0.5780   58.3121 H       1  ZINC000822206030    0.1000
     39 H39       -10.0783    0.6706   59.0311 H       1  ZINC000822206030    0.0900
     40 H40        -8.1739    0.4130   57.6962 H       1  ZINC000822206030    0.1300
     41 H41        -7.1642    0.0570   55.4811 H       1  ZINC000822206030    0.1400
     42 H42        -6.1776   -0.9125   51.1588 H       1  ZINC000822206030    0.4800
     43 H43       -10.9848   -1.1262   53.9468 H       1  ZINC000822206030    0.1300
     44 H44       -11.9774   -0.7707   56.1698 H       1  ZINC000822206030    0.1400
     45 H45        -9.0193   -1.6075   62.5808 H       1  ZINC000822206030    0.1000
     46 H46        -7.4469   -0.7556   62.1300 H       1  ZINC000822206030    0.1000
     47 H47       -11.2898   -0.4612   62.1210 H       1  ZINC000822206030    0.1000
     48 H48       -11.8025    1.3853   63.7834 H       1  ZINC000822206030    0.0900
     49 H49       -10.2339    2.2375   63.3204 H       1  ZINC000822206030    0.0900
     50 H50       -11.0441    2.4271   60.9242 H       1  ZINC000822206030    0.0800
     51 H51       -12.6128    1.5748   61.3873 H       1  ZINC000822206030    0.0900
@<TRIPOS>BOND
     1     1     2    1
     2     1    32    1
     3     1    33    1
     4     1    34    1
     5     2     8   ar
     6     2     3   ar
     7     3     4   ar
     8     3    35    1
     9     4     5    1
    10     4     6   ar
    11     6     7   ar
    12     6    36    1
    13     7     8   ar
    14     7    37    1
    15     8     9    1
    16     9    10    1
    17     9    22   am
    18    10    11    1
    19    10    38    1
    20    10    39    1
    21    11    21   ar
    22    11    12   ar
    23    12    13   ar
    24    12    40    1
    25    13    14   ar
    26    13    41    1
    27    14    15    1
    28    14    20   ar
    29    15    19    1
    30    15    16    2
    31    16    17    1
    32    17    18    1
    33    17    42    1
    34    18    19    2
    35    20    21   ar
    36    20    43    1
    37    21    44    1
    38    22    23    2
    39    22    24    1
    40    24    25    1
    41    24    27    1
    42    24    26    1
    43    26    27    1
    44    26    45    1
    45    26    46    1
    46    27    28    1
    47    27    29    1
    48    29    31    1
    49    29    30    1
    50    29    47    1
    51    30    31    1
    52    30    48    1
    53    30    49    1
    54    31    50    1
    55    31    51    1
@<TRIPOS>SUBSTRUCTURE
     1 ZINC000822206030        1 TEMP              0 ****  ****    0 ROOT


##########                                Name:    ZINC000032503012
##########                DOCK_Rotatable_Bonds:                   8
##########                         Heavy_Atoms:                  27
##########                    Molecular_Weight:             390.503
##########                DOCK_Rotatable_Bonds:                   8
##########                       Formal_Charge:           0.0099995
##########                     HBond_Acceptors:                   7
##########                        HBond_Donors:                   2
##########                         Heavy_Atoms:                  27
##########                          Grid_Score:          -31.061928
##########                     Grid_vdw_energy:          -29.731291
##########                      Grid_es_energy:           -1.330638
##########           Internal_energy_repulsive:          106.115990

@<TRIPOS>MOLECULE
ZINC000032503012
 53 54 1 0 0
SMALL
USER_CHARGES


@<TRIPOS>ATOM
      1 C1          2.9453    3.9389   56.9218 C.3     1  ZINC000032503012   -0.1200
      2 C2          3.6193    3.3233   55.7226 C.ar    1  ZINC000032503012   -0.0500
      3 C3          4.9969    3.2135   55.6855 C.ar    1  ZINC000032503012   -0.1600
      4 C4          5.6185    2.6491   54.5866 C.ar    1  ZINC000032503012   -0.0700
      5 C5          4.8639    2.1938   53.5231 C.ar    1  ZINC000032503012   -0.1500
      6 C6          3.4811    2.3030   53.5580 C.ar    1  ZINC000032503012    0.1300
      7 O7          2.7364    1.8554   52.5129 O.3     1  ZINC000032503012   -0.2800
      8 C8          3.4431    1.2822   51.4112 C.3     1  ZINC000032503012    0.0700
      9 H9          4.1559    2.0078   51.0195 H       1  ZINC000032503012    0.1100
     10 C10         4.1923    0.0332   51.8800 C.3     1  ZINC000032503012   -0.1800
     11 C11         2.4648    0.9044   50.3289 C.2     1  ZINC000032503012    0.5200
     12 O12         2.7739    1.0265   49.1625 O.2     1  ZINC000032503012   -0.4900
     13 N13         1.2464    0.4308   50.6570 N.am    1  ZINC000032503012   -0.6700
     14 C14         0.3381    0.0800   49.6522 C.ar    1  ZINC000032503012    0.1300
     15 C15         0.3955   -1.1800   49.0715 C.ar    1  ZINC000032503012   -0.0600
     16 C16        -0.5026   -1.5233   48.0797 C.ar    1  ZINC000032503012   -0.1200
     17 C17        -1.4576   -0.6137   47.6647 C.ar    1  ZINC000032503012   -0.0300
     18 C18        -1.5171    0.6422   48.2408 C.ar    1  ZINC000032503012   -0.6600
     19 S19        -2.7360    1.7978   47.7083 S.o2    1  ZINC000032503012    2.7000
     20 O20        -3.3608    1.2251   46.5677 O.2     1  ZINC000032503012   -0.9600
     21 O21        -3.4518    2.1906   48.8714 O.2     1  ZINC000032503012   -0.9500
     22 N22        -1.9344    3.1452   47.1753 N.am    1  ZINC000032503012   -1.1100
     23 C23        -0.9852    3.0412   46.0643 C.3     1  ZINC000032503012    0.1700
     24 C24         0.4196    2.7892   46.6154 C.3     1  ZINC000032503012   -0.1900
     25 C25        -1.3914    1.8811   45.1533 C.3     1  ZINC000032503012   -0.1500
     26 C26        -0.9926    4.3450   45.2636 C.3     1  ZINC000032503012   -0.1800
     27 C27        -0.6264    0.9893   49.2374 C.ar    1  ZINC000032503012   -0.0400
     28 C28         2.8597    2.8643   54.6638 C.ar    1  ZINC000032503012   -0.2100
     29 H29         2.7251    3.1617   57.6535 H       1  ZINC000032503012    0.0700
     30 H30         3.6061    4.6819   57.3685 H       1  ZINC000032503012    0.0700
     31 H31         2.0172    4.4183   56.6105 H       1  ZINC000032503012    0.0700
     32 H32         5.5887    3.5693   56.5159 H       1  ZINC000032503012    0.1300
     33 H33         6.6948    2.5647   54.5598 H       1  ZINC000032503012    0.1300
     34 H34         5.3498    1.7535   52.6650 H       1  ZINC000032503012    0.1300
     35 H35         4.8999    0.3065   52.6628 H       1  ZINC000032503012    0.0800
     36 H36         3.4795   -0.6924   52.2717 H       1  ZINC000032503012    0.0800
     37 H37         4.7313   -0.4040   51.0396 H       1  ZINC000032503012    0.0800
     38 H38         0.9991    0.3331   51.5900 H       1  ZINC000032503012    0.4100
     39 H39         1.1417   -1.8908   49.3947 H       1  ZINC000032503012    0.1400
     40 H40        -0.4586   -2.5032   47.6277 H       1  ZINC000032503012    0.1400
     41 H41        -2.1584   -0.8845   46.8888 H       1  ZINC000032503012    0.1500
     42 H42        -2.0933    4.0034   47.5987 H       1  ZINC000032503012    0.4200
     43 H43         0.3879    1.9646   47.3276 H       1  ZINC000032503012    0.0700
     44 H44         1.0915    2.5354   45.7955 H       1  ZINC000032503012    0.0800
     45 H45         0.7802    3.6879   47.1159 H       1  ZINC000032503012    0.0700
     46 H46        -2.3922    2.0606   44.7606 H       1  ZINC000032503012    0.0700
     47 H47        -0.6852    1.8038   44.3266 H       1  ZINC000032503012    0.0700
     48 H48        -1.3861    0.9523   45.7237 H       1  ZINC000032503012    0.0600
     49 H49        -0.5180    5.1332   45.8482 H       1  ZINC000032503012    0.0900
     50 H50        -0.4438    4.2028   44.3325 H       1  ZINC000032503012    0.0700
     51 H51        -2.0210    4.6280   45.0396 H       1  ZINC000032503012    0.0600
     52 H52        -0.6733    1.9702   49.6868 H       1  ZINC000032503012    0.1400
     53 H53         1.7835    2.9504   54.6933 H       1  ZINC000032503012    0.1300
@<TRIPOS>BOND
     1     1     2    1
     2     1    29    1
     3     1    30    1
     4     1    31    1
     5     2    28   ar
     6     2     3   ar
     7     3     4   ar
     8     3    32    1
     9     4     5   ar
    10     4    33    1
    11     5     6   ar
    12     5    34    1
    13     6     7    1
    14     6    28   ar
    15     7     8    1
    16     8     9    1
    17     8    10    1
    18     8    11    1
    19    10    35    1
    20    10    36    1
    21    10    37    1
    22    11    12    2
    23    11    13   am
    24    13    14    1
    25    13    38    1
    26    14    27   ar
    27    14    15   ar
    28    15    16   ar
    29    15    39    1
    30    16    17   ar
    31    16    40    1
    32    17    18   ar
    33    17    41    1
    34    18    19    1
    35    18    27   ar
    36    19    20    2
    37    19    21    2
    38    19    22   am
    39    22    23    1
    40    22    42    1
    41    23    24    1
    42    23    25    1
    43    23    26    1
    44    24    43    1
    45    24    44    1
    46    24    45    1
    47    25    46    1
    48    25    47    1
    49    25    48    1
    50    26    49    1
    51    26    50    1
    52    26    51    1
    53    27    52    1
    54    28    53    1
@<TRIPOS>SUBSTRUCTURE
     1 ZINC000032503012        1 TEMP              0 ****  ****    0 ROOT


##########                                Name:    ZINC000004598904
##########                DOCK_Rotatable_Bonds:                  13
##########                         Heavy_Atoms:                  30
##########                    Molecular_Weight:             412.442
##########                DOCK_Rotatable_Bonds:                  13
##########                       Formal_Charge:          -0.0300005
##########                     HBond_Acceptors:                   8
##########                        HBond_Donors:                   2
##########                         Heavy_Atoms:                  30
##########                          Grid_Score:          -31.029118
##########                     Grid_vdw_energy:          -28.549725
##########                      Grid_es_energy:           -2.479392
##########           Internal_energy_repulsive:            9.731139

@<TRIPOS>MOLECULE
ZINC000004598904
 54 55 1 0 0
SMALL
USER_CHARGES


@<TRIPOS>ATOM
      1 C1          2.9282   -1.2562   61.7293 C.3     1  ZINC000004598904   -0.1500
      2 C2          1.4758   -0.7765   61.7665 C.3     1  ZINC000004598904    0.0600
      3 O3          1.3842    0.4273   62.5731 O.3     1  ZINC000004598904   -0.3500
      4 C4          1.9063    1.5546   62.0511 C.2     1  ZINC000004598904    0.5100
      5 O5          2.3673    2.4068   62.7844 O.2     1  ZINC000004598904   -0.5100
      6 C6          1.9180    1.7541   60.5901 C.ar    1  ZINC000004598904   -0.1500
      7 C7          3.1312    1.7764   59.8956 C.ar    1  ZINC000004598904   -0.0400
      8 C8          3.1382    1.9630   58.5319 C.ar    1  ZINC000004598904   -0.1400
      9 C9          1.9399    2.1292   57.8444 C.ar    1  ZINC000004598904    0.1800
     10 N10         1.9510    2.3174   56.4631 N.am    1  ZINC000004598904   -0.6700
     11 C11         1.6163    3.5151   55.9436 C.2     1  ZINC000004598904    0.5200
     12 O12         1.3056    4.4292   56.6776 O.2     1  ZINC000004598904   -0.5100
     13 C13         1.6282    3.7186   54.4504 C.3     1  ZINC000004598904   -0.1300
     14 C14         0.2623    4.2363   53.9953 C.3     1  ZINC000004598904   -0.1300
     15 C15        -0.0549    3.6837   52.6296 C.2     1  ZINC000004598904    0.5200
     16 O16         0.2402    4.3146   51.6368 O.2     1  ZINC000004598904   -0.5100
     17 N17        -0.6663    2.4885   52.5115 N.am    1  ZINC000004598904   -0.6700
     18 C18        -0.9597    1.9774   51.2480 C.ar    1  ZINC000004598904    0.1800
     19 C19        -2.2050    2.2159   50.6748 C.ar    1  ZINC000004598904   -0.1400
     20 C20        -2.4981    1.7129   49.4275 C.ar    1  ZINC000004598904   -0.0300
     21 C21        -1.5427    0.9619   48.7364 C.ar    1  ZINC000004598904   -0.1500
     22 C22        -1.8528    0.4217   47.3997 C.2     1  ZINC000004598904    0.5100
     23 O23        -2.2255   -0.7286   47.2809 O.2     1  ZINC000004598904   -0.5100
     24 O24        -1.7229    1.2038   46.3101 O.3     1  ZINC000004598904   -0.3600
     25 C25        -0.9879    0.6518   45.1862 C.3     1  ZINC000004598904    0.0600
     26 C26        -1.9731    0.0989   44.1545 C.3     1  ZINC000004598904   -0.1500
     27 C27        -0.2923    0.7246   49.3151 C.ar    1  ZINC000004598904   -0.0400
     28 C28        -0.0044    1.2348   50.5607 C.ar    1  ZINC000004598904   -0.1600
     29 C29         0.7306    2.1076   58.5323 C.ar    1  ZINC000004598904   -0.1600
     30 C30         0.7156    1.9158   59.8953 C.ar    1  ZINC000004598904   -0.0300
     31 H31         3.2658   -1.4715   62.7432 H       1  ZINC000004598904    0.0700
     32 H32         2.9970   -2.1599   61.1238 H       1  ZINC000004598904    0.0800
     33 H33         3.5565   -0.4788   61.2946 H       1  ZINC000004598904    0.0700
     34 H34         1.1382   -0.5612   60.7527 H       1  ZINC000004598904    0.0700
     35 H35         0.8474   -1.5540   62.2013 H       1  ZINC000004598904    0.0700
     36 H36         4.0617    1.6479   60.4287 H       1  ZINC000004598904    0.1400
     37 H37         4.0751    1.9807   57.9949 H       1  ZINC000004598904    0.1400
     38 H38         2.1994    1.5863   55.8760 H       1  ZINC000004598904    0.4200
     39 H39         2.3977    4.4449   54.1887 H       1  ZINC000004598904    0.1100
     40 H40         1.8404    2.7704   53.9562 H       1  ZINC000004598904    0.1100
     41 H41        -0.5020    3.9158   54.7033 H       1  ZINC000004598904    0.1100
     42 H42         0.2828    5.3251   53.9509 H       1  ZINC000004598904    0.1100
     43 H43        -0.9022    1.9838   53.3056 H       1  ZINC000004598904    0.4200
     44 H44        -2.9425    2.7962   51.2093 H       1  ZINC000004598904    0.1400
     45 H45        -3.4651    1.8978   48.9835 H       1  ZINC000004598904    0.1400
     46 H46        -0.3830    1.4343   44.7281 H       1  ZINC000004598904    0.0700
     47 H47        -0.3390   -0.1512   45.5357 H       1  ZINC000004598904    0.0700
     48 H48        -1.4214   -0.3154   43.3108 H       1  ZINC000004598904    0.0800
     49 H49        -2.5780   -0.6836   44.6127 H       1  ZINC000004598904    0.0700
     50 H50        -2.6220    0.9020   43.8050 H       1  ZINC000004598904    0.0700
     51 H51         0.4480    0.1446   48.7842 H       1  ZINC000004598904    0.1400
     52 H52         0.9614    1.0523   51.0084 H       1  ZINC000004598904    0.1400
     53 H53        -0.1976    2.2369   57.9956 H       1  ZINC000004598904    0.1400
     54 H54        -0.2234    1.8990   60.4286 H       1  ZINC000004598904    0.1400
@<TRIPOS>BOND
     1     1     2    1
     2     1    31    1
     3     1    32    1
     4     1    33    1
     5     2     3    1
     6     2    34    1
     7     2    35    1
     8     3     4    1
     9     4     5    2
    10     4     6    1
    11     6    30   ar
    12     6     7   ar
    13     7     8   ar
    14     7    36    1
    15     8     9   ar
    16     8    37    1
    17     9    10    1
    18     9    29   ar
    19    10    11   am
    20    10    38    1
    21    11    12    2
    22    11    13    1
    23    13    14    1
    24    13    39    1
    25    13    40    1
    26    14    15    1
    27    14    41    1
    28    14    42    1
    29    15    16    2
    30    15    17   am
    31    17    18    1
    32    17    43    1
    33    18    28   ar
    34    18    19   ar
    35    19    20   ar
    36    19    44    1
    37    20    21   ar
    38    20    45    1
    39    21    22    1
    40    21    27   ar
    41    22    23    2
    42    22    24    1
    43    24    25    1
    44    25    26    1
    45    25    46    1
    46    25    47    1
    47    26    48    1
    48    26    49    1
    49    26    50    1
    50    27    28   ar
    51    27    51    1
    52    28    52    1
    53    29    30   ar
    54    29    53    1
    55    30    54    1
@<TRIPOS>SUBSTRUCTURE
     1 ZINC000004598904        1 TEMP              0 ****  ****    0 ROOT


##########                                Name:    ZINC000751548479
##########                DOCK_Rotatable_Bonds:                   9
##########                         Heavy_Atoms:                  27
##########                    Molecular_Weight:             389.407
##########                DOCK_Rotatable_Bonds:                   9
##########                       Formal_Charge:           0.0199995
##########                     HBond_Acceptors:                   9
##########                        HBond_Donors:                   2
##########                         Heavy_Atoms:                  27
##########                          Grid_Score:          -31.028051
##########                     Grid_vdw_energy:          -29.307304
##########                      Grid_es_energy:           -1.720747
##########           Internal_energy_repulsive:           19.167528

@<TRIPOS>MOLECULE
ZINC000751548479
 43 44 1 0 0
SMALL
USER_CHARGES


@<TRIPOS>ATOM
      1 C1        -14.5648   -4.0271   57.7240 C.3     1  ZINC000751548479   -0.1600
      2 C2        -13.5063   -3.1830   57.0113 C.3     1  ZINC000751548479    0.0800
      3 O3        -12.1889   -3.7317   57.2790 O.3     1  ZINC000751548479   -0.3600
      4 C4        -11.1372   -3.0889   56.7368 C.2     1  ZINC000751548479    0.6500
      5 O5        -10.0081   -3.3647   57.0911 O.2     1  ZINC000751548479   -0.5400
      6 N6        -11.3371   -2.1397   55.8012 N.am    1  ZINC000751548479   -0.6500
      7 C7        -10.2465   -1.4731   55.2388 C.ar    1  ZINC000751548479    0.2000
      8 C8         -9.6802   -1.9369   54.0602 C.ar    1  ZINC000751548479   -0.1000
      9 C9         -8.6021   -1.2791   53.5029 C.ar    1  ZINC000751548479   -0.1000
     10 C10        -8.0754   -0.1479   54.1171 C.ar    1  ZINC000751548479    0.1300
     11 N11        -6.9821    0.5118   53.5446 N.am    1  ZINC000751548479   -1.0500
     12 S12        -6.3617   -0.0122   52.1014 S.o2    1  ZINC000751548479    2.6800
     13 O13        -5.8050   -1.2964   52.3466 O.2     1  ZINC000751548479   -0.9500
     14 O14        -7.3644    0.2264   51.1233 O.2     1  ZINC000751548479   -0.9400
     15 C15        -5.0119    1.0466   51.6989 C.2     1  ZINC000751548479   -0.7500
     16 C16        -4.7712    1.3618   50.4338 C.2     1  ZINC000751548479    0.0700
     17 C17        -3.6401    2.2513   50.0963 C.ar    1  ZINC000751548479   -0.1100
     18 C18        -2.8199    2.7552   51.1066 C.ar    1  ZINC000751548479   -0.0600
     19 C19        -1.7654    3.5845   50.7861 C.ar    1  ZINC000751548479   -0.1600
     20 C20        -1.5201    3.9180   49.4637 C.ar    1  ZINC000751548479    0.1200
     21 F21        -0.4862    4.7310   49.1551 F       1  ZINC000751548479   -0.1300
     22 C22        -2.3312    3.4199   48.4566 C.ar    1  ZINC000751548479   -0.1600
     23 C23        -3.3852    2.5856   48.7656 C.ar    1  ZINC000751548479   -0.0500
     24 C24        -8.6304    0.3276   55.2933 C.ar    1  ZINC000751548479   -0.0600
     25 C25        -9.7242   -0.3294   55.8608 C.ar    1  ZINC000751548479   -0.0300
     26 C26       -10.3039    0.1565   57.0767 C.1     1  ZINC000751548479    0.2500
     27 N27       -10.7638    0.5421   58.0413 N.1     1  ZINC000751548479   -0.4000
     28 H28       -14.3772   -4.0142   58.7977 H       1  ZINC000751548479    0.0700
     29 H29       -15.5537   -3.6151   57.5230 H       1  ZINC000751548479    0.0900
     30 H30       -14.5176   -5.0531   57.3591 H       1  ZINC000751548479    0.0700
     31 H31       -13.6940   -3.1957   55.9376 H       1  ZINC000751548479    0.0800
     32 H32       -13.5535   -2.1570   57.3761 H       1  ZINC000751548479    0.0800
     33 H33       -12.2384   -1.9196   55.5184 H       1  ZINC000751548479    0.4200
     34 H34       -10.0837   -2.8150   53.5779 H       1  ZINC000751548479    0.1600
     35 H35        -8.1652   -1.6450   52.5855 H       1  ZINC000751548479    0.1700
     36 H36        -6.5875    1.2760   53.9933 H       1  ZINC000751548479    0.4300
     37 H37        -4.3808    1.4386   52.4826 H       1  ZINC000751548479    0.1700
     38 H38        -5.4016    0.9686   49.6499 H       1  ZINC000751548479    0.1500
     39 H39        -3.0107    2.4965   52.1377 H       1  ZINC000751548479    0.1400
     40 H40        -1.1301    3.9750   51.5673 H       1  ZINC000751548479    0.1400
     41 H41        -2.1355    3.6826   47.4274 H       1  ZINC000751548479    0.1400
     42 H42        -4.0165    2.1978   47.9799 H       1  ZINC000751548479    0.1400
     43 H43        -8.2202    1.2061   55.7690 H       1  ZINC000751548479    0.1500
@<TRIPOS>BOND
     1     1     2    1
     2     1    28    1
     3     1    29    1
     4     1    30    1
     5     2     3    1
     6     2    31    1
     7     2    32    1
     8     3     4    1
     9     4     5    2
    10     4     6   am
    11     6     7    1
    12     6    33    1
    13     7    25   ar
    14     7     8   ar
    15     8     9   ar
    16     8    34    1
    17     9    10   ar
    18     9    35    1
    19    10    11    1
    20    10    24   ar
    21    11    12   am
    22    11    36    1
    23    12    13    2
    24    12    14    2
    25    12    15    1
    26    15    16    2
    27    15    37    1
    28    16    17    1
    29    16    38    1
    30    17    23   ar
    31    17    18   ar
    32    18    19   ar
    33    18    39    1
    34    19    20   ar
    35    19    40    1
    36    20    21    1
    37    20    22   ar
    38    22    23   ar
    39    22    41    1
    40    23    42    1
    41    24    25   ar
    42    24    43    1
    43    25    26    1
    44    26    27    3
@<TRIPOS>SUBSTRUCTURE
     1 ZINC000751548479        1 TEMP              0 ****  ****    0 ROOT


##########                                Name:    ZINC000880838037
##########                DOCK_Rotatable_Bonds:                   9
##########                         Heavy_Atoms:                  24
##########                    Molecular_Weight:             365.477
##########                DOCK_Rotatable_Bonds:                   9
##########                       Formal_Charge:           0.0200001
##########                     HBond_Acceptors:                   8
##########                        HBond_Donors:                   3
##########                         Heavy_Atoms:                  24
##########                          Grid_Score:          -31.008987
##########                     Grid_vdw_energy:          -30.071154
##########                      Grid_es_energy:           -0.937834
##########           Internal_energy_repulsive:            9.086025

@<TRIPOS>MOLECULE
ZINC000880838037
 43 44 1 0 0
SMALL
USER_CHARGES


@<TRIPOS>ATOM
      1 C1         -8.2617   -0.4436   64.1485 C.3     1  ZINC000880838037    0.0300
      2 O2         -8.3388    0.0893   62.8247 O.3     1  ZINC000880838037   -0.3100
      3 C3         -9.5037   -0.0992   62.1507 C.ar    1  ZINC000880838037    0.1400
      4 C4        -10.6530    0.5678   62.5505 C.ar    1  ZINC000880838037   -0.2200
      5 C5        -11.8384    0.3771   61.8660 C.ar    1  ZINC000880838037   -0.0700
      6 C6        -11.8833   -0.4783   60.7824 C.ar    1  ZINC000880838037   -0.1500
      7 C7        -10.7358   -1.1491   60.3779 C.ar    1  ZINC000880838037    0.1800
      8 N8        -10.7812   -2.0156   59.2802 N.am    1  ZINC000880838037   -0.6700
      9 C9        -10.3150   -1.6106   58.0822 C.2     1  ZINC000880838037    0.5200
     10 O10        -9.8560   -0.4952   57.9557 O.2     1  ZINC000880838037   -0.4900
     11 C11       -10.3639   -2.5439   56.9001 C.3     1  ZINC000880838037   -0.0600
     12 C12       -10.8494   -1.7929   55.6870 C.2     1  ZINC000880838037    0.1000
     13 C13       -12.0698   -1.2613   55.6095 C.2     1  ZINC000880838037   -0.2600
     14 S14       -12.2279   -0.4803   54.0384 S.3     1  ZINC000880838037    0.1300
     15 C15       -10.6328   -0.9450   53.6350 C.2     1  ZINC000880838037    0.0100
     16 S16        -9.8288   -0.5761   52.1110 S.3     1  ZINC000880838037    0.1000
     17 C17        -8.1038   -0.5710   52.6590 C.3     1  ZINC000880838037   -0.1500
     18 H18        -7.9338   -1.4116   53.3318 H       1  ZINC000880838037    0.1200
     19 C19        -7.8055    0.7380   53.3927 C.3     1  ZINC000880838037   -0.1500
     20 C20        -7.1962   -0.6941   51.4622 C.2     1  ZINC000880838037    0.5400
     21 N21        -5.9559   -1.2016   51.6064 N.am    1  ZINC000880838037   -0.8400
     22 O22        -7.5818   -0.3366   50.3694 O.2     1  ZINC000880838037   -0.5200
     23 N23       -10.0984   -1.6037   54.6169 N.2     1  ZINC000880838037   -0.4200
     24 C24        -9.5433   -0.9537   61.0599 C.ar    1  ZINC000880838037   -0.1500
     25 C25        -8.2967   -1.6797   60.6240 C.3     1  ZINC000880838037   -0.1000
     26 H26        -8.4091   -1.5230   64.1147 H       1  ZINC000880838037    0.0600
     27 H27        -7.2817   -0.2237   64.5721 H       1  ZINC000880838037    0.1000
     28 H28        -9.0353    0.0096   64.7683 H       1  ZINC000880838037    0.0600
     29 H29       -10.6211    1.2367   63.3979 H       1  ZINC000880838037    0.1300
     30 H30       -12.7314    0.8974   62.1792 H       1  ZINC000880838037    0.1300
     31 H31       -12.8109   -0.6259   60.2494 H       1  ZINC000880838037    0.1400
     32 H32       -11.1483   -2.9077   59.3815 H       1  ZINC000880838037    0.4100
     33 H33        -9.3665   -2.9391   56.7076 H       1  ZINC000880838037    0.1200
     34 H34       -11.0456   -3.3669   57.1148 H       1  ZINC000880838037    0.1200
     35 H35       -12.8293   -1.3027   56.3762 H       1  ZINC000880838037    0.1800
     36 H36        -7.9754    1.5785   52.7198 H       1  ZINC000880838037    0.0900
     37 H37        -8.4619    0.8271   54.2583 H       1  ZINC000880838037    0.0800
     38 H38        -6.7667    0.7410   53.7226 H       1  ZINC000880838037    0.0800
     39 H39        -5.3713   -1.2797   50.8363 H       1  ZINC000880838037    0.4000
     40 H40        -5.6480   -1.4886   52.4803 H       1  ZINC000880838037    0.4100
     41 H41        -7.7634   -1.0768   59.8889 H       1  ZINC000880838037    0.0700
     42 H42        -7.6548   -1.8507   61.4882 H       1  ZINC000880838037    0.0700
     43 H43        -8.5702   -2.6366   60.1795 H       1  ZINC000880838037    0.0600
@<TRIPOS>BOND
     1     1     2    1
     2     1    26    1
     3     1    27    1
     4     1    28    1
     5     2     3    1
     6     3    24   ar
     7     3     4   ar
     8     4     5   ar
     9     4    29    1
    10     5     6   ar
    11     5    30    1
    12     6     7   ar
    13     6    31    1
    14     7     8    1
    15     7    24   ar
    16     8     9   am
    17     8    32    1
    18     9    10    2
    19     9    11    1
    20    11    12    1
    21    11    33    1
    22    11    34    1
    23    12    23    1
    24    12    13    2
    25    13    14    1
    26    13    35    1
    27    14    15    1
    28    15    16    1
    29    15    23    2
    30    16    17    1
    31    17    18    1
    32    17    19    1
    33    17    20    1
    34    19    36    1
    35    19    37    1
    36    19    38    1
    37    20    21   am
    38    20    22    2
    39    21    39    1
    40    21    40    1
    41    24    25    1
    42    25    41    1
    43    25    42    1
    44    25    43    1
@<TRIPOS>SUBSTRUCTURE
     1 ZINC000880838037        1 TEMP              0 ****  ****    0 ROOT


##########                                Name:    ZINC000753658424
##########                DOCK_Rotatable_Bonds:                   8
##########                         Heavy_Atoms:                  24
##########                    Molecular_Weight:             332.399
##########                DOCK_Rotatable_Bonds:                   8
##########                       Formal_Charge:        -9.16421e-07
##########                     HBond_Acceptors:                   6
##########                        HBond_Donors:                   3
##########                         Heavy_Atoms:                  24
##########                          Grid_Score:          -31.005646
##########                     Grid_vdw_energy:          -29.854467
##########                      Grid_es_energy:           -1.151178
##########           Internal_energy_repulsive:           21.573898

@<TRIPOS>MOLECULE
ZINC000753658424
 48 49 1 0 0
SMALL
USER_CHARGES


@<TRIPOS>ATOM
      1 C1          1.5841    1.2497   46.0894 C.3     1  ZINC000753658424   -0.2000
      2 C2          0.6222    0.2572   46.6898 C.2     1  ZINC000753658424    0.4400
      3 O3          0.9120   -0.9203   46.7303 O.2     1  ZINC000753658424   -0.4500
      4 C4         -0.6639    0.7142   47.2252 C.2     1  ZINC000753658424   -0.2500
      5 C5         -1.8348    0.9054   46.5082 C.2     1  ZINC000753658424    0.1000
      6 C6         -2.0103    0.6779   45.0288 C.3     1  ZINC000753658424   -0.1000
      7 N7         -2.7848    1.3269   47.3557 N.pl3   1  ZINC000753658424   -0.5300
      8 C8         -2.2556    1.4166   48.6252 C.2     1  ZINC000753658424   -0.0600
      9 C9         -2.9800    1.8420   49.8298 C.2     1  ZINC000753658424    0.5900
     10 O10        -2.5594    2.7681   50.4974 O.2     1  ZINC000753658424   -0.5200
     11 N11        -4.1107    1.2064   50.1957 N.am    1  ZINC000753658424   -0.7300
     12 C12        -4.8325    1.6296   51.3983 C.3     1  ZINC000753658424    0.0900
     13 C13        -5.8390    0.5482   51.7961 C.3     1  ZINC000753658424    0.1900
     14 H14        -5.3045   -0.3511   52.1019 H       1  ZINC000753658424    0.1300
     15 O15        -6.6795    0.2464   50.6804 O.3     1  ZINC000753658424   -0.5500
     16 C16        -6.6834    1.0446   52.9413 C.2     1  ZINC000753658424   -0.0600
     17 C17        -6.9222    2.3339   53.2414 C.2     1  ZINC000753658424   -0.1800
     18 C18        -7.7565    2.3410   54.3829 C.2     1  ZINC000753658424   -0.2100
     19 C19        -7.9778    1.0556   54.7119 C.2     1  ZINC000753658424    0.0000
     20 C20        -8.8161    0.5734   55.8676 C.3     1  ZINC000753658424   -0.0800
     21 O21        -7.3301    0.2748   53.8318 O.3     1  ZINC000753658424   -0.1700
     22 C22        -0.9478    1.0382   48.5738 C.2     1  ZINC000753658424   -0.0100
     23 C23         0.0161    0.9838   49.7309 C.3     1  ZINC000753658424   -0.0500
     24 C24         0.9614   -0.2059   49.5517 C.3     1  ZINC000753658424   -0.1500
     25 C25         0.8295    2.2788   49.7785 C.3     1  ZINC000753658424   -0.1500
     26 H26         2.5099    0.7413   45.8202 H       1  ZINC000753658424    0.0800
     27 H27         1.1401    1.6921   45.1977 H       1  ZINC000753658424    0.1000
     28 H28         1.7980    2.0335   46.8159 H       1  ZINC000753658424    0.0900
     29 H29        -2.4060   -0.3234   44.8596 H       1  ZINC000753658424    0.0900
     30 H30        -2.7052    1.4158   44.6277 H       1  ZINC000753658424    0.0800
     31 H31        -1.0466    0.7771   44.5291 H       1  ZINC000753658424    0.0900
     32 H32        -3.7006    1.5357   47.1133 H       1  ZINC000753658424    0.4200
     33 H33        -4.4467    0.4687   49.6628 H       1  ZINC000753658424    0.4000
     34 H34        -4.1238    1.7832   52.2121 H       1  ZINC000753658424    0.0900
     35 H35        -5.3609    2.5611   51.1960 H       1  ZINC000753658424    0.0800
     36 H36        -6.2401   -0.2575   49.9818 H       1  ZINC000753658424    0.3900
     37 H37        -6.5478    3.1979   52.7125 H       1  ZINC000753658424    0.1500
     38 H38        -8.1420    3.2114   54.8929 H       1  ZINC000753658424    0.1500
     39 H39        -9.8476    0.4445   55.5393 H       1  ZINC000753658424    0.0800
     40 H40        -8.4272   -0.3797   56.2259 H       1  ZINC000753658424    0.0800
     41 H41        -8.7802    1.3066   56.6733 H       1  ZINC000753658424    0.0900
     42 H42        -0.5396    0.8693   50.6616 H       1  ZINC000753658424    0.1100
     43 H43         1.6015   -0.0341   48.6864 H       1  ZINC000753658424    0.0500
     44 H44         1.5780   -0.3175   50.4435 H       1  ZINC000753658424    0.0600
     45 H45         0.3778   -1.1136   49.3976 H       1  ZINC000753658424    0.0600
     46 H46         0.1650    3.1177   49.9855 H       1  ZINC000753658424    0.0500
     47 H47         1.5804    2.2074   50.5653 H       1  ZINC000753658424    0.0600
     48 H48         1.3223    2.4338   48.8187 H       1  ZINC000753658424    0.0600
@<TRIPOS>BOND
     1     1     2    1
     2     1    26    1
     3     1    27    1
     4     1    28    1
     5     2     3    2
     6     2     4    1
     7     4    22    1
     8     4     5    2
     9     5     6    1
    10     5     7    1
    11     6    29    1
    12     6    30    1
    13     6    31    1
    14     7     8    1
    15     7    32    1
    16     8     9    1
    17     8    22    2
    18     9    10    2
    19     9    11   am
    20    11    12    1
    21    11    33    1
    22    12    13    1
    23    12    34    1
    24    12    35    1
    25    13    14    1
    26    13    15    1
    27    13    16    1
    28    15    36    1
    29    16    21    1
    30    16    17    2
    31    17    18    1
    32    17    37    1
    33    18    19    2
    34    18    38    1
    35    19    20    1
    36    19    21    1
    37    20    39    1
    38    20    40    1
    39    20    41    1
    40    22    23    1
    41    23    24    1
    42    23    25    1
    43    23    42    1
    44    24    43    1
    45    24    44    1
    46    24    45    1
    47    25    46    1
    48    25    47    1
    49    25    48    1
@<TRIPOS>SUBSTRUCTURE
     1 ZINC000753658424        1 TEMP              0 ****  ****    0 ROOT


##########                                Name:    ZINC001191196975
##########                DOCK_Rotatable_Bonds:                  14
##########                         Heavy_Atoms:                  24
##########                    Molecular_Weight:             339.438
##########                DOCK_Rotatable_Bonds:                  14
##########                       Formal_Charge:          0.00999969
##########                     HBond_Acceptors:                   8
##########                        HBond_Donors:                   4
##########                         Heavy_Atoms:                  24
##########                          Grid_Score:          -31.000309
##########                     Grid_vdw_energy:          -29.991621
##########                      Grid_es_energy:           -1.008687
##########           Internal_energy_repulsive:           12.030647

@<TRIPOS>MOLECULE
ZINC001191196975
 53 53 1 0 0
SMALL
USER_CHARGES


@<TRIPOS>ATOM
      1 C1          4.7514    0.7390   51.4933 C.2     1  ZINC001191196975   -0.1600
      2 C2          3.4865    0.6189   51.1745 C.2     1  ZINC001191196975   -0.1800
      3 C3          2.9941    1.1221   49.8420 C.3     1  ZINC001191196975    0.1500
      4 N4          1.8193    0.3490   49.4318 N.am    1  ZINC001191196975   -0.7300
      5 C5          1.4592    0.3081   48.1337 C.2     1  ZINC001191196975    0.5100
      6 O6          2.1086    0.9100   47.3050 O.2     1  ZINC001191196975   -0.5200
      7 C7          0.2496   -0.4857   47.7121 C.3     1  ZINC001191196975    0.0300
      8 N8         -0.7568    0.4206   47.1429 N.3     1  ZINC001191196975   -0.5100
      9 C9         -1.2400   -0.0761   45.8476 C.3     1  ZINC001191196975    0.0200
     10 C10        -1.8715    0.6235   48.0780 C.3     1  ZINC001191196975    0.0700
     11 H11        -2.3665   -0.3211   48.3032 H       1  ZINC001191196975    0.0600
     12 C12        -2.8812    1.6623   47.5225 C.3     1  ZINC001191196975   -0.1200
     13 C13        -3.5234    2.2384   48.8021 C.3     1  ZINC001191196975    0.1000
     14 N14        -2.5864    1.9947   49.9086 N.am    1  ZINC001191196975   -0.6200
     15 C15        -2.7891    2.3305   51.1979 C.2     1  ZINC001191196975    0.5300
     16 O16        -1.9428    2.0805   52.0300 O.2     1  ZINC001191196975   -0.5400
     17 C17        -4.0673    3.0166   51.6059 C.3     1  ZINC001191196975   -0.1300
     18 C18        -5.1445    1.9658   51.8824 C.3     1  ZINC001191196975   -0.1000
     19 C19        -6.1122    2.4943   52.9430 C.3     1  ZINC001191196975   -0.1300
     20 C20        -7.0104    1.3543   53.4273 C.3     1  ZINC001191196975    0.1400
     21 N21        -7.8727    0.9115   52.3289 N.am    1  ZINC001191196975   -0.7500
     22 C22        -8.3494   -0.3490   52.3125 C.2     1  ZINC001191196975    0.7000
     23 N23        -9.1440   -0.7558   51.3027 N.am    1  ZINC001191196975   -0.8700
     24 O24        -8.0627   -1.1191   53.2086 O.2     1  ZINC001191196975   -0.5900
     25 C25        -1.3886    1.3202   49.3746 C.3     1  ZINC001191196975    0.1100
     26 H26         5.4414    1.1989   50.8013 H       1  ZINC001191196975    0.1000
     27 H27         5.1033    0.3824   52.4500 H       1  ZINC001191196975    0.1000
     28 H28         2.7965    0.1590   51.8665 H       1  ZINC001191196975    0.1200
     29 H29         2.7244    2.1747   49.9283 H       1  ZINC001191196975    0.0800
     30 H30         3.7819    1.0087   49.0973 H       1  ZINC001191196975    0.0700
     31 H31         1.3005   -0.1333   50.0945 H       1  ZINC001191196975    0.4000
     32 H32         0.5410   -1.2216   46.9626 H       1  ZINC001191196975    0.0700
     33 H33        -0.1702   -0.9964   48.5787 H       1  ZINC001191196975    0.1100
     34 H34        -1.5905   -1.1021   45.9597 H       1  ZINC001191196975    0.0200
     35 H35        -2.0603    0.5522   45.5007 H       1  ZINC001191196975    0.0700
     36 H36        -0.4277   -0.0469   45.1213 H       1  ZINC001191196975    0.0900
     37 H37        -2.3639    2.4433   46.9653 H       1  ZINC001191196975    0.0900
     38 H38        -3.6320    1.1756   46.8999 H       1  ZINC001191196975    0.0800
     39 H39        -3.6875    3.3096   48.6845 H       1  ZINC001191196975    0.0700
     40 H40        -4.4701    1.7359   49.0005 H       1  ZINC001191196975    0.0700
     41 H41        -3.8926    3.6038   52.5075 H       1  ZINC001191196975    0.0900
     42 H42        -4.3990    3.6743   50.8026 H       1  ZINC001191196975    0.0900
     43 H43        -5.6918    1.7561   50.9634 H       1  ZINC001191196975    0.0800
     44 H44        -4.6751    1.0504   52.2427 H       1  ZINC001191196975    0.0800
     45 H45        -5.5461    2.8935   53.7847 H       1  ZINC001191196975    0.0700
     46 H46        -6.7278    3.2838   52.5120 H       1  ZINC001191196975    0.0700
     47 H47        -6.3919    0.5216   53.7620 H       1  ZINC001191196975    0.0700
     48 H48        -7.6273    1.7044   54.2550 H       1  ZINC001191196975    0.0700
     49 H49        -8.1005    1.5256   51.6133 H       1  ZINC001191196975    0.4000
     50 H50        -9.4881   -1.6627   51.2915 H       1  ZINC001191196975    0.4000
     51 H51        -9.3717   -0.1418   50.5872 H       1  ZINC001191196975    0.4200
     52 H52        -1.0188    0.5831   50.0874 H       1  ZINC001191196975    0.0800
     53 H53        -0.6124    2.0504   49.1456 H       1  ZINC001191196975    0.0800
@<TRIPOS>BOND
     1     1     2    2
     2     1    26    1
     3     1    27    1
     4     2     3    1
     5     2    28    1
     6     3     4    1
     7     3    29    1
     8     3    30    1
     9     4     5   am
    10     4    31    1
    11     5     6    2
    12     5     7    1
    13     7     8    1
    14     7    32    1
    15     7    33    1
    16     8     9    1
    17     8    10    1
    18     9    34    1
    19     9    35    1
    20     9    36    1
    21    10    11    1
    22    10    25    1
    23    10    12    1
    24    12    13    1
    25    12    37    1
    26    12    38    1
    27    13    14    1
    28    13    39    1
    29    13    40    1
    30    14    15   am
    31    14    25    1
    32    15    16    2
    33    15    17    1
    34    17    18    1
    35    17    41    1
    36    17    42    1
    37    18    19    1
    38    18    43    1
    39    18    44    1
    40    19    20    1
    41    19    45    1
    42    19    46    1
    43    20    21    1
    44    20    47    1
    45    20    48    1
    46    21    22   am
    47    21    49    1
    48    22    23   am
    49    22    24    2
    50    23    50    1
    51    23    51    1
    52    25    52    1
    53    25    53    1
@<TRIPOS>SUBSTRUCTURE
     1 ZINC001191196975        1 TEMP              0 ****  ****    0 ROOT


##########                                Name:    ZINC001310073555
##########                DOCK_Rotatable_Bonds:                  12
##########                         Heavy_Atoms:                  27
##########                    Molecular_Weight:             380.484
##########                DOCK_Rotatable_Bonds:                  12
##########                       Formal_Charge:          0.00999888
##########                     HBond_Acceptors:                   7
##########                        HBond_Donors:                   2
##########                         Heavy_Atoms:                  27
##########                          Grid_Score:          -30.956673
##########                     Grid_vdw_energy:          -30.205296
##########                      Grid_es_energy:           -0.751378
##########           Internal_energy_repulsive:           58.670597

@<TRIPOS>MOLECULE
ZINC001310073555
 59 59 1 0 0
SMALL
USER_CHARGES


@<TRIPOS>ATOM
      1 C1         -1.3389   -0.1029   46.9779 C.3     1  ZINC001310073555   -0.1600
      2 C2         -2.3538    0.9387   46.5024 C.3     1  ZINC001310073555   -0.1100
      3 C3         -1.6511    2.2840   46.3087 C.3     1  ZINC001310073555   -0.0600
      4 C4         -2.1717    2.9524   45.0347 C.3     1  ZINC001310073555   -0.1100
      5 C5         -1.5750    4.3562   44.9150 C.3     1  ZINC001310073555   -0.1600
      6 C6         -1.9363    3.1861   47.5111 C.3     1  ZINC001310073555    0.1600
      7 N7         -1.7873    2.4139   48.7471 N.am    1  ZINC001310073555   -0.7400
      8 C8         -2.4140    2.8142   49.8713 C.2     1  ZINC001310073555    0.7100
      9 O9         -3.1041    3.8153   49.8592 O.2     1  ZINC001310073555   -0.5700
     10 N10        -2.2756    2.1047   51.0088 N.am    1  ZINC001310073555   -0.6700
     11 C11        -2.9282    2.5214   52.1797 C.ar    1  ZINC001310073555    0.1000
     12 C12        -2.1903    2.9870   53.2570 C.ar    1  ZINC001310073555   -0.0400
     13 C13        -2.8327    3.3974   54.4101 C.ar    1  ZINC001310073555   -0.2200
     14 C14        -4.2161    3.3448   54.4920 C.ar    1  ZINC001310073555    0.1500
     15 O15        -4.8451    3.7493   55.6276 O.3     1  ZINC001310073555   -0.3200
     16 C16        -5.2005    2.7346   56.5689 C.3     1  ZINC001310073555    0.0300
     17 C17        -4.9587    2.8806   53.4162 C.ar    1  ZINC001310073555   -0.2300
     18 C18        -4.3182    2.4729   52.2582 C.ar    1  ZINC001310073555    0.1400
     19 O19        -5.0444    2.0174   51.2026 O.3     1  ZINC001310073555   -0.3100
     20 C20        -5.5610    0.6884   51.2957 C.3     1  ZINC001310073555    0.0300
     21 C21        -0.1655    2.0620   46.1883 C.2     1  ZINC001310073555    0.4800
     22 O22         0.5483    2.2156   47.1511 O.2     1  ZINC001310073555   -0.5000
     23 O23         0.3650    1.6934   45.0117 O.3     1  ZINC001310073555   -0.3400
     24 C24         1.7979    1.4608   44.9785 C.3     1  ZINC001310073555    0.1200
     25 C25         2.2108    1.0221   43.5722 C.3     1  ZINC001310073555   -0.1800
     26 C26         2.5326    2.7514   45.3466 C.3     1  ZINC001310073555   -0.1400
     27 C27         2.1599    0.3639   45.9818 C.3     1  ZINC001310073555   -0.1800
     28 H28        -1.8395   -1.0613   47.1159 H       1  ZINC001310073555    0.0600
     29 H29        -0.5506   -0.2088   46.2325 H       1  ZINC001310073555    0.0500
     30 H30        -0.9037    0.2192   47.9238 H       1  ZINC001310073555    0.0600
     31 H31        -2.7891    0.6166   45.5565 H       1  ZINC001310073555    0.0800
     32 H32        -3.1421    1.0445   47.2478 H       1  ZINC001310073555    0.0800
     33 H33        -1.8809    2.3588   44.1680 H       1  ZINC001310073555    0.0800
     34 H34        -3.2586    3.0222   45.0792 H       1  ZINC001310073555    0.0800
     35 H35        -1.8660    4.9497   45.7817 H       1  ZINC001310073555    0.0600
     36 H36        -0.4882    4.2865   44.8706 H       1  ZINC001310073555    0.0500
     37 H37        -1.9459    4.8324   44.0074 H       1  ZINC001310073555    0.0600
     38 H38        -1.2327    4.0185   47.5157 H       1  ZINC001310073555    0.0800
     39 H39        -2.9539    3.5708   47.4433 H       1  ZINC001310073555    0.0800
     40 H40        -1.2379    1.6147   48.7565 H       1  ZINC001310073555    0.4000
     41 H41        -1.7251    1.3061   51.0185 H       1  ZINC001310073555    0.4100
     42 H42        -1.1128    3.0288   53.1955 H       1  ZINC001310073555    0.1500
     43 H43        -2.2564    3.7592   55.2488 H       1  ZINC001310073555    0.1300
     44 H44        -5.8774    2.0222   56.0970 H       1  ZINC001310073555    0.0600
     45 H45        -4.3012    2.2160   56.9010 H       1  ZINC001310073555    0.0600
     46 H46        -5.6942    3.1915   57.4265 H       1  ZINC001310073555    0.1000
     47 H47        -6.0360    2.8400   53.4808 H       1  ZINC001310073555    0.1400
     48 H48        -6.1189    0.4511   50.3900 H       1  ZINC001310073555    0.1000
     49 H49        -4.7360   -0.0150   51.4090 H       1  ZINC001310073555    0.0600
     50 H50        -6.2220    0.6151   52.1594 H       1  ZINC001310073555    0.0600
     51 H51         1.9529    1.8036   42.8573 H       1  ZINC001310073555    0.0600
     52 H52         3.2865    0.8476   43.5472 H       1  ZINC001310073555    0.0700
     53 H53         1.6874    0.1027   43.3099 H       1  ZINC001310073555    0.0800
     54 H54         2.2384    3.0638   46.3485 H       1  ZINC001310073555    0.0700
     55 H55         3.6083    2.5768   45.3216 H       1  ZINC001310073555    0.0800
     56 H56         2.2748    3.5328   44.6318 H       1  ZINC001310073555    0.0700
     57 H57         1.6364   -0.5555   45.7196 H       1  ZINC001310073555    0.0800
     58 H58         3.2355    0.1894   45.9569 H       1  ZINC001310073555    0.0700
     59 H59         1.8657    0.6765   46.9838 H       1  ZINC001310073555    0.0600
@<TRIPOS>BOND
     1     1     2    1
     2     1    28    1
     3     1    29    1
     4     1    30    1
     5     2     3    1
     6     2    31    1
     7     2    32    1
     8     3     4    1
     9     3     6    1
    10     3    21    1
    11     4     5    1
    12     4    33    1
    13     4    34    1
    14     5    35    1
    15     5    36    1
    16     5    37    1
    17     6     7    1
    18     6    38    1
    19     6    39    1
    20     7     8   am
    21     7    40    1
    22     8     9    2
    23     8    10   am
    24    10    11    1
    25    10    41    1
    26    11    18   ar
    27    11    12   ar
    28    12    13   ar
    29    12    42    1
    30    13    14   ar
    31    13    43    1
    32    14    15    1
    33    14    17   ar
    34    15    16    1
    35    16    44    1
    36    16    45    1
    37    16    46    1
    38    17    18   ar
    39    17    47    1
    40    18    19    1
    41    19    20    1
    42    20    48    1
    43    20    49    1
    44    20    50    1
    45    21    22    2
    46    21    23    1
    47    23    24    1
    48    24    25    1
    49    24    26    1
    50    24    27    1
    51    25    51    1
    52    25    52    1
    53    25    53    1
    54    26    54    1
    55    26    55    1
    56    26    56    1
    57    27    57    1
    58    27    58    1
    59    27    59    1
@<TRIPOS>SUBSTRUCTURE
     1 ZINC001310073555        1 TEMP              0 ****  ****    0 ROOT


##########                                Name:    ZINC000269287897
##########                DOCK_Rotatable_Bonds:                   8
##########                         Heavy_Atoms:                  23
##########                    Molecular_Weight:             385.301
##########                DOCK_Rotatable_Bonds:                   8
##########                       Formal_Charge:           0.0300002
##########                     HBond_Acceptors:                   5
##########                        HBond_Donors:                   1
##########                         Heavy_Atoms:                  23
##########                          Grid_Score:          -30.950258
##########                     Grid_vdw_energy:          -30.774496
##########                      Grid_es_energy:           -0.175762
##########           Internal_energy_repulsive:            8.500955

@<TRIPOS>MOLECULE
ZINC000269287897
 48 49 1 0 0
SMALL
USER_CHARGES


@<TRIPOS>ATOM
      1 C1         -8.6164   -1.5476   60.6982 C.3     1  ZINC000269287897    0.0300
      2 O2         -8.8712   -2.4747   59.6410 O.3     1  ZINC000269287897   -0.3800
      3 C3        -10.1936   -3.0159   59.6488 C.3     1  ZINC000269287897    0.0600
      4 C4        -10.3656   -3.9592   58.4564 C.3     1  ZINC000269287897    0.0600
      5 O5        -10.0782   -3.2552   57.2466 O.3     1  ZINC000269287897   -0.3800
      6 C6        -11.0328   -2.2424   56.9227 C.3     1  ZINC000269287897    0.0700
      7 C7        -10.7987   -1.7604   55.4897 C.3     1  ZINC000269287897   -0.1000
      8 H8        -10.7060   -2.6043   54.8061 H       1  ZINC000269287897    0.1000
      9 C9        -11.9277   -0.7979   55.0351 C.3     1  ZINC000269287897   -0.1200
     10 C10       -11.2317    0.0709   53.9663 C.3     1  ZINC000269287897    0.1000
     11 N11        -9.7856    0.0036   54.2230 N.am    1  ZINC000269287897   -0.6300
     12 C12        -8.8294    0.6136   53.4950 C.2     1  ZINC000269287897    0.7300
     13 O13        -9.1369    1.2908   52.5330 O.2     1  ZINC000269287897   -0.5600
     14 N14        -7.5324    0.4731   53.8333 N.am    1  ZINC000269287897   -0.6900
     15 C15        -6.5392    1.1066   53.0771 C.ar    1  ZINC000269287897    0.1800
     16 C16        -6.0706    0.5173   51.9110 C.ar    1  ZINC000269287897   -0.0600
     17 C17        -6.6306   -0.8062   51.4571 C.3     1  ZINC000269287897   -0.1000
     18 C18        -5.0907    1.1453   51.1665 C.ar    1  ZINC000269287897   -0.0900
     19 C19        -4.5765    2.3596   51.5816 C.ar    1  ZINC000269287897   -0.0800
     20 C20        -3.5077    3.0415   50.7669 C.3     1  ZINC000269287897   -0.1100
     21 C21        -5.0411    2.9503   52.7427 C.ar    1  ZINC000269287897   -0.0900
     22 C22        -6.0244    2.3299   53.4892 C.ar    1  ZINC000269287897   -0.1000
     23 Br23       -6.6597    3.1382   55.0763 Br      1  ZINC000269287897   -0.0500
     24 C24        -9.5542   -0.8414   55.4093 C.3     1  ZINC000269287897    0.1400
     25 H25        -9.3078   -0.7086   60.6202 H       1  ZINC000269287897    0.0400
     26 H26        -8.7549   -2.0445   61.6584 H       1  ZINC000269287897    0.0400
     27 H27        -7.5921   -1.1827   60.6224 H       1  ZINC000269287897    0.0900
     28 H28       -10.3550   -3.5678   60.5747 H       1  ZINC000269287897    0.0600
     29 H29       -10.9185   -2.2050   59.5779 H       1  ZINC000269287897    0.0600
     30 H30        -9.6813   -4.8016   58.5579 H       1  ZINC000269287897    0.0700
     31 H31       -11.3916   -4.3260   58.4284 H       1  ZINC000269287897    0.0600
     32 H32       -12.0396   -2.6512   57.0086 H       1  ZINC000269287897    0.0600
     33 H33       -10.9210   -1.4043   57.6107 H       1  ZINC000269287897    0.0500
     34 H34       -12.7569   -1.3550   54.5991 H       1  ZINC000269287897    0.0900
     35 H35       -12.2698   -0.1841   55.8683 H       1  ZINC000269287897    0.0800
     36 H36       -11.4502   -0.3186   52.9720 H       1  ZINC000269287897    0.0700
     37 H37       -11.5747    1.1024   54.0463 H       1  ZINC000269287897    0.0700
     38 H38        -7.2871   -0.0672   54.6007 H       1  ZINC000269287897    0.4100
     39 H39        -7.3972   -0.6362   50.7011 H       1  ZINC000269287897    0.0900
     40 H40        -5.8305   -1.4130   51.0333 H       1  ZINC000269287897    0.0600
     41 H41        -7.0691   -1.3263   52.3087 H       1  ZINC000269287897    0.0600
     42 H42        -4.7257    0.6868   50.2594 H       1  ZINC000269287897    0.1300
     43 H43        -3.9741    3.6968   50.0314 H       1  ZINC000269287897    0.0700
     44 H44        -2.8693    3.6306   51.4253 H       1  ZINC000269287897    0.0700
     45 H45        -2.9066    2.2902   50.2548 H       1  ZINC000269287897    0.0700
     46 H46        -4.6374    3.8990   53.0643 H       1  ZINC000269287897    0.1400
     47 H47        -9.4800   -0.2253   56.3053 H       1  ZINC000269287897    0.0700
     48 H48        -8.6498   -1.4361   55.2808 H       1  ZINC000269287897    0.0900
@<TRIPOS>BOND
     1     1     2    1
     2     1    25    1
     3     1    26    1
     4     1    27    1
     5     2     3    1
     6     3     4    1
     7     3    28    1
     8     3    29    1
     9     4     5    1
    10     4    30    1
    11     4    31    1
    12     5     6    1
    13     6     7    1
    14     6    32    1
    15     6    33    1
    16     7     8    1
    17     7    24    1
    18     7     9    1
    19     9    10    1
    20     9    34    1
    21     9    35    1
    22    10    11    1
    23    10    36    1
    24    10    37    1
    25    11    12   am
    26    11    24    1
    27    12    13    2
    28    12    14   am
    29    14    15    1
    30    14    38    1
    31    15    22   ar
    32    15    16   ar
    33    16    17    1
    34    16    18   ar
    35    17    39    1
    36    17    40    1
    37    17    41    1
    38    18    19   ar
    39    18    42    1
    40    19    20    1
    41    19    21   ar
    42    20    43    1
    43    20    44    1
    44    20    45    1
    45    21    22   ar
    46    21    46    1
    47    22    23    1
    48    24    47    1
    49    24    48    1
@<TRIPOS>SUBSTRUCTURE
     1 ZINC000269287897        1 TEMP              0 ****  ****    0 ROOT


##########                                Name:    ZINC001271977984
##########                DOCK_Rotatable_Bonds:                   7
##########                         Heavy_Atoms:                  24
##########                    Molecular_Weight:             328.371
##########                DOCK_Rotatable_Bonds:                   7
##########                       Formal_Charge:           0.0200001
##########                     HBond_Acceptors:                   7
##########                        HBond_Donors:                   0
##########                         Heavy_Atoms:                  24
##########                          Grid_Score:          -30.935081
##########                     Grid_vdw_energy:          -30.316235
##########                      Grid_es_energy:           -0.618848
##########           Internal_energy_repulsive:           28.225212

@<TRIPOS>MOLECULE
ZINC001271977984
 44 46 1 0 0
SMALL
USER_CHARGES


@<TRIPOS>ATOM
      1 C1         -2.4971    3.4871   52.0259 C.3     1  ZINC001271977984   -0.1800
      2 C2         -3.6312    2.9212   51.1689 C.3     1  ZINC001271977984    0.1700
      3 H3         -4.3134    3.7250   50.8924 H       1  ZINC001271977984    0.1100
      4 C4         -3.0566    2.2989   49.9225 C.2     1  ZINC001271977984    0.2700
      5 N5         -1.9376    1.6414   49.8692 N.2     1  ZINC001271977984   -0.4700
      6 C6         -1.7342    1.2249   48.5899 C.ar    1  ZINC001271977984    0.0200
      7 C7         -0.7245    0.4960   47.9602 C.ar    1  ZINC001271977984   -0.0600
      8 C8         -0.8125    0.2317   46.6114 C.ar    1  ZINC001271977984   -0.1200
      9 C9         -1.8976    0.6852   45.8764 C.ar    1  ZINC001271977984   -0.0900
     10 C10        -2.9028    1.4072   46.4856 C.ar    1  ZINC001271977984   -0.0900
     11 C11        -2.8307    1.6821   47.8424 C.ar    1  ZINC001271977984    0.0100
     12 O12        -3.6309    2.3400   48.7099 O.3     1  ZINC001271977984   -0.2100
     13 N13        -4.3609    1.9011   51.9339 N.3     1  ZINC001271977984   -0.5300
     14 C14        -5.2505    2.5221   52.9243 C.3     1  ZINC001271977984    0.0000
     15 C15        -5.1101    1.0083   51.0398 C.3     1  ZINC001271977984    0.0400
     16 C16        -5.7182   -0.1356   51.8538 C.3     1  ZINC001271977984    0.1200
     17 N17        -7.1714   -0.1485   51.6678 N.am    1  ZINC001271977984   -0.6000
     18 C18        -7.7370   -0.1364   50.3164 C.3     1  ZINC001271977984    0.0800
     19 C19        -7.9879   -0.1715   52.7398 C.2     1  ZINC001271977984    0.6000
     20 O20        -7.5183   -0.1814   53.8616 O.2     1  ZINC001271977984   -0.5300
     21 C21        -9.4500   -0.1845   52.5526 C.2     1  ZINC001271977984   -0.0800
     22 C22       -10.3682    0.4727   53.3123 C.2     1  ZINC001271977984    0.0200
     23 O23       -11.5759    0.1902   52.7981 O.3     1  ZINC001271977984   -0.2000
     24 C24       -11.4039   -0.6225   51.7460 C.2     1  ZINC001271977984    0.1800
     25 N25       -10.1351   -0.8512   51.5843 N.2     1  ZINC001271977984   -0.4600
     26 H26        -2.9127    3.9371   52.9274 H       1  ZINC001271977984    0.0800
     27 H27        -1.8149    2.6832   52.3024 H       1  ZINC001271977984    0.0800
     28 H28        -1.9557    4.2440   51.4584 H       1  ZINC001271977984    0.0700
     29 H29         0.1226    0.1409   48.5281 H       1  ZINC001271977984    0.1400
     30 H30        -0.0315   -0.3321   46.1230 H       1  ZINC001271977984    0.1400
     31 H31        -1.9557    0.4718   44.8192 H       1  ZINC001271977984    0.1400
     32 H32        -3.7447    1.7572   45.9067 H       1  ZINC001271977984    0.1400
     33 H33        -5.9728    3.1598   52.4146 H       1  ZINC001271977984    0.0300
     34 H34        -5.7783    1.7446   53.4765 H       1  ZINC001271977984    0.0700
     35 H35        -4.6605    3.1227   53.6166 H       1  ZINC001271977984    0.1100
     36 H36        -5.9062    1.5691   50.5501 H       1  ZINC001271977984    0.0500
     37 H37        -4.4367    0.6000   50.2862 H       1  ZINC001271977984    0.0800
     38 H38        -5.3003   -1.0839   51.5163 H       1  ZINC001271977984    0.0900
     39 H39        -5.4884    0.0076   52.9096 H       1  ZINC001271977984    0.0900
     40 H40        -7.9529   -1.1581   50.0038 H       1  ZINC001271977984    0.0600
     41 H41        -8.6578    0.4468   50.3131 H       1  ZINC001271977984    0.0900
     42 H42        -7.0210    0.3109   49.6268 H       1  ZINC001271977984    0.0700
     43 H43       -10.1644    1.1015   54.1663 H       1  ZINC001271977984    0.2300
     44 H44       -12.1948   -1.0214   51.1282 H       1  ZINC001271977984    0.2600
@<TRIPOS>BOND
     1     1     2    1
     2     1    26    1
     3     1    27    1
     4     1    28    1
     5     2     3    1
     6     2     4    1
     7     2    13    1
     8     4    12    1
     9     4     5    2
    10     5     6    1
    11     6    11   ar
    12     6     7   ar
    13     7     8   ar
    14     7    29    1
    15     8     9   ar
    16     8    30    1
    17     9    10   ar
    18     9    31    1
    19    10    11   ar
    20    10    32    1
    21    11    12    1
    22    13    14    1
    23    13    15    1
    24    14    33    1
    25    14    34    1
    26    14    35    1
    27    15    16    1
    28    15    36    1
    29    15    37    1
    30    16    17    1
    31    16    38    1
    32    16    39    1
    33    17    18    1
    34    17    19   am
    35    18    40    1
    36    18    41    1
    37    18    42    1
    38    19    20    2
    39    19    21    1
    40    21    25    1
    41    21    22    2
    42    22    23    1
    43    22    43    1
    44    23    24    1
    45    24    25    2
    46    24    44    1
@<TRIPOS>SUBSTRUCTURE
     1 ZINC001271977984        1 TEMP              0 ****  ****    0 ROOT


##########                                Name:    ZINC001061022329
##########                DOCK_Rotatable_Bonds:                   7
##########                         Heavy_Atoms:                  27
##########                    Molecular_Weight:             374.523
##########                DOCK_Rotatable_Bonds:                   7
##########                       Formal_Charge:           0.0800005
##########                     HBond_Acceptors:                   5
##########                        HBond_Donors:                   0
##########                         Heavy_Atoms:                  27
##########                          Grid_Score:          -30.931860
##########                     Grid_vdw_energy:          -31.631182
##########                      Grid_es_energy:            0.699321
##########           Internal_energy_repulsive:           22.331581

@<TRIPOS>MOLECULE
ZINC001061022329
 61 64 1 0 0
SMALL
USER_CHARGES


@<TRIPOS>ATOM
      1 C1         -7.0312   -1.1765   51.4076 C.3     1  ZINC001061022329   -0.1500
      2 C2         -8.2554   -0.5202   52.0492 C.3     1  ZINC001061022329   -0.1200
      3 C3         -7.8586    0.0961   53.3921 C.3     1  ZINC001061022329    0.0800
      4 H4         -7.4122   -0.6702   54.0259 H       1  ZINC001061022329    0.0600
      5 C5         -6.8454    1.2185   53.1586 C.3     1  ZINC001061022329   -0.1800
      6 O6         -9.0194    0.6280   54.0338 O.3     1  ZINC001061022329   -0.3500
      7 C7         -8.9214    0.6852   55.4582 C.3     1  ZINC001061022329    0.0500
      8 C8         -9.5706   -0.5364   56.0559 C.2     1  ZINC001061022329    0.5200
      9 O9        -10.2904   -1.2353   55.3745 O.2     1  ZINC001061022329   -0.5100
     10 N10        -9.3512   -0.8523   57.3476 N.am    1  ZINC001061022329   -0.6100
     11 C11        -9.9753   -2.0430   57.9395 C.3     1  ZINC001061022329    0.1100
     12 C12       -10.7719   -1.6178   59.1788 C.3     1  ZINC001061022329   -0.1200
     13 C13        -9.8660   -0.8049   60.1006 C.3     1  ZINC001061022329   -0.0900
     14 C14       -10.4882   -0.5131   61.4730 C.3     1  ZINC001061022329    0.1200
     15 N15        -9.1566   -0.8286   62.0280 N.am    1  ZINC001061022329   -0.6400
     16 C16        -8.5022   -0.4960   63.1583 C.2     1  ZINC001061022329    0.5400
     17 O17        -7.3808   -0.9138   63.3552 O.2     1  ZINC001061022329   -0.5300
     18 C18        -9.1641    0.3951   64.1777 C.3     1  ZINC001061022329   -0.0900
     19 H19       -10.1594    0.0121   64.4031 H       1  ZINC001061022329    0.1000
     20 C20        -9.2789    1.8141   63.6164 C.3     1  ZINC001061022329   -0.1000
     21 C21        -8.5147    2.7880   64.5223 C.3     1  ZINC001061022329   -0.0600
     22 H22        -8.5402    3.7977   64.1126 H       1  ZINC001061022329    0.0800
     23 C23        -7.0820    2.2892   64.6394 C.2     1  ZINC001061022329   -0.1800
     24 C24        -6.9821    1.0551   65.1276 C.2     1  ZINC001061022329   -0.1300
     25 C25        -8.3225    0.4173   65.4601 C.3     1  ZINC001061022329   -0.0400
     26 H26        -8.1842   -0.5869   65.8605 H       1  ZINC001061022329    0.0900
     27 C27        -9.0267    1.3189   66.4836 C.3     1  ZINC001061022329   -0.1100
     28 C28        -9.1530    2.7506   65.9177 C.3     1  ZINC001061022329   -0.1100
     29 C29        -8.8300   -1.6551   60.8489 C.3     1  ZINC001061022329    0.1100
     30 C30        -9.2708    0.4276   59.4244 C.3     1  ZINC001061022329   -0.1100
     31 C31        -8.4799   -0.0143   58.1818 C.3     1  ZINC001061022329    0.1100
     32 H32        -6.2579   -0.4251   51.2481 H       1  ZINC001061022329    0.0500
     33 H33        -6.6498   -1.9563   52.0667 H       1  ZINC001061022329    0.0600
     34 H34        -7.3139   -1.6156   50.4509 H       1  ZINC001061022329    0.0600
     35 H35        -8.6369    0.2596   51.3900 H       1  ZINC001061022329    0.0800
     36 H36        -9.0288   -1.2716   52.2086 H       1  ZINC001061022329    0.0700
     37 H37        -6.5628    1.6577   54.1153 H       1  ZINC001061022329    0.0600
     38 H38        -5.9601    0.8128   52.6692 H       1  ZINC001061022329    0.0700
     39 H39        -7.2919    1.9849   52.5250 H       1  ZINC001061022329    0.0700
     40 H40        -7.8714    0.7177   55.7492 H       1  ZINC001061022329    0.0800
     41 H41        -9.4270    1.5799   55.8216 H       1  ZINC001061022329    0.0800
     42 H42       -10.6463   -2.5028   57.2138 H       1  ZINC001061022329    0.0900
     43 H43        -9.2025   -2.7554   58.2284 H       1  ZINC001061022329    0.0800
     44 H44       -11.6226   -1.0085   58.8738 H       1  ZINC001061022329    0.0800
     45 H45       -11.1269   -2.5038   59.7053 H       1  ZINC001061022329    0.0800
     46 H46       -10.7860    0.5266   61.6087 H       1  ZINC001061022329    0.0800
     47 H47       -11.2646   -1.2210   61.7634 H       1  ZINC001061022329    0.0900
     48 H48        -8.8548    1.8430   62.6127 H       1  ZINC001061022329    0.0700
     49 H49       -10.3288    2.1044   63.5751 H       1  ZINC001061022329    0.0700
     50 H50        -6.2257    2.8816   64.3530 H       1  ZINC001061022329    0.1200
     51 H51        -6.0372    0.5529   65.2737 H       1  ZINC001061022329    0.1200
     52 H52       -10.0233    0.9275   66.6873 H       1  ZINC001061022329    0.0700
     53 H53        -8.4489    1.3396   67.4075 H       1  ZINC001061022329    0.0700
     54 H54        -8.6305    3.4474   66.5731 H       1  ZINC001061022329    0.0700
     55 H55       -10.2058    3.0265   65.8599 H       1  ZINC001061022329    0.0700
     56 H56        -9.1136   -2.7024   60.9538 H       1  ZINC001061022329    0.0900
     57 H57        -7.8098   -1.5232   60.4884 H       1  ZINC001061022329    0.0800
     58 H58       -10.0728    1.1034   59.1274 H       1  ZINC001061022329    0.0800
     59 H59        -8.6021    0.9368   60.1184 H       1  ZINC001061022329    0.0800
     60 H60        -7.6029   -0.5834   58.4902 H       1  ZINC001061022329    0.0700
     61 H61        -8.1680    0.8635   57.6159 H       1  ZINC001061022329    0.1000
@<TRIPOS>BOND
     1     1     2    1
     2     1    32    1
     3     1    33    1
     4     1    34    1
     5     2     3    1
     6     2    35    1
     7     2    36    1
     8     3     4    1
     9     3     5    1
    10     3     6    1
    11     5    37    1
    12     5    38    1
    13     5    39    1
    14     6     7    1
    15     7     8    1
    16     7    40    1
    17     7    41    1
    18     8     9    2
    19     8    10   am
    20    10    31    1
    21    10    11    1
    22    11    12    1
    23    11    42    1
    24    11    43    1
    25    12    13    1
    26    12    44    1
    27    12    45    1
    28    13    29    1
    29    13    14    1
    30    13    30    1
    31    14    15    1
    32    14    46    1
    33    14    47    1
    34    15    16   am
    35    15    29    1
    36    16    17    2
    37    16    18    1
    38    18    19    1
    39    18    25    1
    40    18    20    1
    41    20    21    1
    42    20    48    1
    43    20    49    1
    44    21    22    1
    45    21    28    1
    46    21    23    1
    47    23    24    2
    48    23    50    1
    49    24    25    1
    50    24    51    1
    51    25    26    1
    52    25    27    1
    53    27    28    1
    54    27    52    1
    55    27    53    1
    56    28    54    1
    57    28    55    1
    58    29    56    1
    59    29    57    1
    60    30    31    1
    61    30    58    1
    62    30    59    1
    63    31    60    1
    64    31    61    1
@<TRIPOS>SUBSTRUCTURE
     1 ZINC001061022329        1 TEMP              0 ****  ****    0 ROOT


##########                                Name:    ZINC000914736341
##########                DOCK_Rotatable_Bonds:                   7
##########                         Heavy_Atoms:                  27
##########                    Molecular_Weight:             384.905
##########                DOCK_Rotatable_Bonds:                   7
##########                       Formal_Charge:                0.02
##########                     HBond_Acceptors:                   5
##########                        HBond_Donors:                   1
##########                         Heavy_Atoms:                  27
##########                          Grid_Score:          -30.931511
##########                     Grid_vdw_energy:          -30.357052
##########                      Grid_es_energy:           -0.574460
##########           Internal_energy_repulsive:           30.121763

@<TRIPOS>MOLECULE
ZINC000914736341
 52 54 1 0 0
SMALL
USER_CHARGES


@<TRIPOS>ATOM
      1 C1        -11.3130   -0.5938   57.0981 C.3     1  ZINC000914736341   -0.1400
      2 C2        -11.2550   -2.1214   57.0333 C.3     1  ZINC000914736341   -0.0300
      3 C3        -10.9953   -2.5612   55.5911 C.3     1  ZINC000914736341   -0.1400
      4 C4        -10.1249   -2.6273   57.9321 C.3     1  ZINC000914736341    0.1300
      5 N5        -10.3707   -2.2016   59.3121 N.am    1  ZINC000914736341   -0.7200
      6 C6         -9.3333   -1.9645   60.1391 C.2     1  ZINC000914736341    0.5300
      7 O7         -8.1962   -2.1050   59.7413 O.2     1  ZINC000914736341   -0.5300
      8 C8         -9.5861   -1.5248   61.5583 C.3     1  ZINC000914736341   -0.1200
      9 H9         -9.5757   -2.3780   62.2366 H       1  ZINC000914736341    0.1200
     10 C10       -10.9180   -0.7470   61.6676 C.3     1  ZINC000914736341   -0.1400
     11 C11       -10.6325    0.3365   62.6840 C.2     1  ZINC000914736341    0.5200
     12 O12       -11.4775    0.9862   63.2627 O.2     1  ZINC000914736341   -0.5200
     13 N13        -9.3060    0.4742   62.8526 N.am    1  ZINC000914736341   -0.6100
     14 C14        -8.6847    1.4302   63.7725 C.3     1  ZINC000914736341    0.1600
     15 C15        -8.7345    0.8823   65.1756 C.ar    1  ZINC000914736341   -0.1000
     16 C16        -7.9308   -0.1847   65.5297 C.ar    1  ZINC000914736341   -0.0800
     17 C17        -7.9764   -0.6875   66.8168 C.ar    1  ZINC000914736341   -0.1100
     18 C18        -8.8260   -0.1237   67.7500 C.ar    1  ZINC000914736341   -0.1000
     19 C19        -9.6303    0.9437   67.3969 C.ar    1  ZINC000914736341   -0.1100
     20 C20        -9.5806    1.4512   66.1110 C.ar    1  ZINC000914736341   -0.0300
     21 Cl21      -10.5905    2.7916   65.6669 Cl      1  ZINC000914736341   -0.0600
     22 C22        -8.5598   -0.4570   61.9974 C.3     1  ZINC000914736341    0.1000
     23 C23       -12.5666   -2.6943   57.5048 C.ar    1  ZINC000914736341   -0.0700
     24 C24       -13.2855   -2.0516   58.4951 C.ar    1  ZINC000914736341   -0.1200
     25 C25       -14.4887   -2.5772   58.9276 C.ar    1  ZINC000914736341   -0.1200
     26 C26       -14.9731   -3.7455   58.3694 C.ar    1  ZINC000914736341   -0.1200
     27 C27       -14.2546   -4.3877   57.3784 C.ar    1  ZINC000914736341   -0.1200
     28 C28       -13.0535   -3.8598   56.9430 C.ar    1  ZINC000914736341   -0.1100
     29 H29       -12.1180   -0.2333   56.4577 H       1  ZINC000914736341    0.0600
     30 H30       -11.4980   -0.2805   58.1255 H       1  ZINC000914736341    0.0600
     31 H31       -10.3642   -0.1794   56.7571 H       1  ZINC000914736341    0.0600
     32 H32       -10.0466   -2.1468   55.2501 H       1  ZINC000914736341    0.0600
     33 H33       -10.9538   -3.6494   55.5449 H       1  ZINC000914736341    0.0600
     34 H34       -11.8003   -2.2007   54.9507 H       1  ZINC000914736341    0.0600
     35 H35       -10.0860   -3.7158   57.8891 H       1  ZINC000914736341    0.0700
     36 H36        -9.1757   -2.2160   57.5886 H       1  ZINC000914736341    0.0700
     37 H37       -11.2802   -2.0903   59.6307 H       1  ZINC000914736341    0.4000
     38 H38       -11.1833   -0.3077   60.7060 H       1  ZINC000914736341    0.1100
     39 H39       -11.7142   -1.4019   62.0216 H       1  ZINC000914736341    0.1100
     40 H40        -7.6464    1.5915   63.4821 H       1  ZINC000914736341    0.1000
     41 H41        -9.2243    2.3763   63.7326 H       1  ZINC000914736341    0.1000
     42 H42        -7.2674   -0.6261   64.8009 H       1  ZINC000914736341    0.1400
     43 H43        -7.3481   -1.5213   67.0932 H       1  ZINC000914736341    0.1300
     44 H44        -8.8617   -0.5172   68.7551 H       1  ZINC000914736341    0.1300
     45 H45       -10.2941    1.3842   68.1261 H       1  ZINC000914736341    0.1400
     46 H46        -7.7498   -0.9201   62.5609 H       1  ZINC000914736341    0.1000
     47 H47        -8.1638    0.0654   61.1265 H       1  ZINC000914736341    0.0900
     48 H48       -12.9071   -1.1389   58.9311 H       1  ZINC000914736341    0.1300
     49 H49       -15.0501   -2.0754   59.7018 H       1  ZINC000914736341    0.1200
     50 H50       -15.9128   -4.1565   58.7078 H       1  ZINC000914736341    0.1200
     51 H51       -14.6328   -5.3006   56.9426 H       1  ZINC000914736341    0.1200
     52 H52       -12.4922   -4.3616   56.1687 H       1  ZINC000914736341    0.1200
@<TRIPOS>BOND
     1     1     2    1
     2     1    29    1
     3     1    30    1
     4     1    31    1
     5     2     3    1
     6     2     4    1
     7     2    23    1
     8     3    32    1
     9     3    33    1
    10     3    34    1
    11     4     5    1
    12     4    35    1
    13     4    36    1
    14     5     6   am
    15     5    37    1
    16     6     7    2
    17     6     8    1
    18     8     9    1
    19     8    22    1
    20     8    10    1
    21    10    11    1
    22    10    38    1
    23    10    39    1
    24    11    12    2
    25    11    13   am
    26    13    14    1
    27    13    22    1
    28    14    15    1
    29    14    40    1
    30    14    41    1
    31    15    20   ar
    32    15    16   ar
    33    16    17   ar
    34    16    42    1
    35    17    18   ar
    36    17    43    1
    37    18    19   ar
    38    18    44    1
    39    19    20   ar
    40    19    45    1
    41    20    21    1
    42    22    46    1
    43    22    47    1
    44    23    28   ar
    45    23    24   ar
    46    24    25   ar
    47    24    48    1
    48    25    26   ar
    49    25    49    1
    50    26    27   ar
    51    26    50    1
    52    27    28   ar
    53    27    51    1
    54    28    52    1
@<TRIPOS>SUBSTRUCTURE
     1 ZINC000914736341        1 TEMP              0 ****  ****    0 ROOT


##########                                Name:    ZINC001077846158
##########                DOCK_Rotatable_Bonds:                   7
##########                         Heavy_Atoms:                  24
##########                    Molecular_Weight:             350.442
##########                DOCK_Rotatable_Bonds:                   7
##########                       Formal_Charge:          -0.0600002
##########                     HBond_Acceptors:                   8
##########                        HBond_Donors:                   2
##########                         Heavy_Atoms:                  24
##########                          Grid_Score:          -30.895538
##########                     Grid_vdw_energy:          -31.109388
##########                      Grid_es_energy:            0.213851
##########           Internal_energy_repulsive:            7.225184

@<TRIPOS>MOLECULE
ZINC001077846158
 46 48 1 0 0
SMALL
USER_CHARGES


@<TRIPOS>ATOM
      1 C1         -0.3861   -1.6286   47.6626 C.3     1  ZINC001077846158   -0.0700
      2 C2         -0.9249   -0.6522   46.6489 C.2     1  ZINC001077846158    0.0100
      3 C3         -0.7680    0.6817   46.6718 C.2     1  ZINC001077846158   -0.0500
      4 C4         -0.0228    1.4777   47.7121 C.3     1  ZINC001077846158    0.1300
      5 N5         -0.7473    1.4149   48.9885 N.3     1  ZINC001077846158   -0.5100
      6 C6          0.0284    2.0684   50.0735 C.3     1  ZINC001077846158    0.0000
      7 C7         -1.0490    2.3764   51.1435 C.3     1  ZINC001077846158    0.1000
      8 H8         -1.2656    1.4897   51.7393 H       1  ZINC001077846158    0.0800
      9 O9         -0.6351    3.4576   51.9812 O.3     1  ZINC001077846158   -0.5600
     10 C10        -2.2762    2.7771   50.2930 C.3     1  ZINC001077846158    0.1400
     11 H11        -2.3422    3.8620   50.2115 H       1  ZINC001077846158    0.1100
     12 N12        -3.5030    2.2369   50.8843 N.am    1  ZINC001077846158   -0.7000
     13 C13        -4.3320    3.0460   51.5732 C.2     1  ZINC001077846158    0.6000
     14 O14        -4.0611    4.2244   51.7050 O.2     1  ZINC001077846158   -0.5300
     15 C15        -5.5660    2.5034   52.1660 C.2     1  ZINC001077846158    0.0100
     16 C16        -6.3709    3.2199   52.9826 C.2     1  ZINC001077846158   -0.2300
     17 S17        -7.6901    2.2408   53.4549 S.3     1  ZINC001077846158    0.2300
     18 C18        -7.0914    0.9320   52.5355 C.2     1  ZINC001077846158    0.0300
     19 C19        -7.7556   -0.4165   52.4283 C.3     1  ZINC001077846158   -0.0200
     20 C20        -8.5434   -0.7002   53.7088 C.3     1  ZINC001077846158   -0.1500
     21 C21        -8.7086   -0.4219   51.2314 C.3     1  ZINC001077846158   -0.1500
     22 N22        -5.9975    1.2592   51.9428 N.2     1  ZINC001077846158   -0.4500
     23 C23        -2.0274    2.1513   48.9081 C.3     1  ZINC001077846158    0.0300
     24 O24        -1.4021    1.1741   45.5896 O.3     1  ZINC001077846158   -0.2100
     25 C25        -1.9349    0.1414   44.9231 C.2     1  ZINC001077846158    0.1800
     26 N26        -1.6444   -0.9598   45.5552 N.2     1  ZINC001077846158   -0.4900
     27 H27         0.6101   -1.9524   47.3613 H       1  ZINC001077846158    0.0800
     28 H28        -0.3317   -1.1462   48.6385 H       1  ZINC001077846158    0.0700
     29 H29        -1.0470   -2.4934   47.7210 H       1  ZINC001077846158    0.0700
     30 H30         0.9765    1.0619   47.8407 H       1  ZINC001077846158    0.0600
     31 H31         0.0543    2.5158   47.3888 H       1  ZINC001077846158    0.1100
     32 H32         0.7819    1.3884   50.4709 H       1  ZINC001077846158    0.0900
     33 H33         0.4897    2.9889   49.7159 H       1  ZINC001077846158    0.0600
     34 H34         0.3095    3.4557   52.1878 H       1  ZINC001077846158    0.3900
     35 H35        -3.7185    1.2969   50.7801 H       1  ZINC001077846158    0.4100
     36 H36        -6.2072    4.2432   53.2867 H       1  ZINC001077846158    0.1900
     37 H37        -6.9957   -1.1859   52.2913 H       1  ZINC001077846158    0.1000
     38 H38        -7.8645   -0.6964   54.5616 H       1  ZINC001077846158    0.0600
     39 H39        -9.3033    0.0692   53.8460 H       1  ZINC001077846158    0.0600
     40 H40        -9.0238   -1.6756   53.6313 H       1  ZINC001077846158    0.0700
     41 H41        -8.1474   -0.2198   50.3192 H       1  ZINC001077846158    0.0600
     42 H42        -9.1890   -1.3973   51.1539 H       1  ZINC001077846158    0.0700
     43 H43        -9.4684    0.3475   51.3685 H       1  ZINC001077846158    0.0600
     44 H44        -1.9583    2.9348   48.1535 H       1  ZINC001077846158    0.0600
     45 H45        -2.8363    1.4639   48.6605 H       1  ZINC001077846158    0.0900
     46 H46        -2.5073    0.2101   44.0098 H       1  ZINC001077846158    0.2500
@<TRIPOS>BOND
     1     1     2    1
     2     1    27    1
     3     1    28    1
     4     1    29    1
     5     2    26    1
     6     2     3    2
     7     3     4    1
     8     3    24    1
     9     4     5    1
    10     4    30    1
    11     4    31    1
    12     5    23    1
    13     5     6    1
    14     6     7    1
    15     6    32    1
    16     6    33    1
    17     7     8    1
    18     7     9    1
    19     7    10    1
    20     9    34    1
    21    10    11    1
    22    10    12    1
    23    10    23    1
    24    12    13   am
    25    12    35    1
    26    13    14    2
    27    13    15    1
    28    15    22    1
    29    15    16    2
    30    16    17    1
    31    16    36    1
    32    17    18    1
    33    18    19    1
    34    18    22    2
    35    19    20    1
    36    19    21    1
    37    19    37    1
    38    20    38    1
    39    20    39    1
    40    20    40    1
    41    21    41    1
    42    21    42    1
    43    21    43    1
    44    23    44    1
    45    23    45    1
    46    24    25    1
    47    25    26    2
    48    25    46    1
@<TRIPOS>SUBSTRUCTURE
     1 ZINC001077846158        1 TEMP              0 ****  ****    0 ROOT


##########                                Name:    ZINC000460163972
##########                DOCK_Rotatable_Bonds:                   7
##########                         Heavy_Atoms:                  28
##########                    Molecular_Weight:             408.469
##########                DOCK_Rotatable_Bonds:                   7
##########                       Formal_Charge:          -0.0100001
##########                     HBond_Acceptors:                   8
##########                        HBond_Donors:                   2
##########                         Heavy_Atoms:                  28
##########                          Grid_Score:          -30.883652
##########                     Grid_vdw_energy:          -29.341829
##########                      Grid_es_energy:           -1.541822
##########           Internal_energy_repulsive:           49.092495

@<TRIPOS>MOLECULE
ZINC000460163972
 50 52 1 0 0
SMALL
USER_CHARGES


@<TRIPOS>ATOM
      1 C1         -6.5930    1.8991   53.2913 C.3     1  ZINC000460163972   -0.1400
      2 C2         -7.4073    1.3363   54.4276 C.ar    1  ZINC000460163972    0.0100
      3 C3         -7.2963    1.8830   55.6927 C.ar    1  ZINC000460163972   -0.1300
      4 C4         -8.0413    1.3695   56.7365 C.ar    1  ZINC000460163972   -0.0600
      5 C5         -8.9025    0.3034   56.5140 C.ar    1  ZINC000460163972    0.1100
      6 N6         -9.6589   -0.2188   57.5690 N.am    1  ZINC000460163972   -0.6700
      7 C7         -9.0418   -0.7128   58.6607 C.2     1  ZINC000460163972    0.5200
      8 O8         -7.8308   -0.7045   58.7286 O.2     1  ZINC000460163972   -0.5100
      9 C9         -9.8563   -1.2753   59.7970 C.3     1  ZINC000460163972   -0.0700
     10 H10       -10.9061   -1.0203   59.6525 H       1  ZINC000460163972    0.1200
     11 C11        -9.7011   -2.7970   59.8313 C.3     1  ZINC000460163972   -0.1500
     12 C12        -9.3722   -0.6914   61.0992 C.ar    1  ZINC000460163972   -0.0600
     13 C13        -8.1990   -1.1504   61.6677 C.ar    1  ZINC000460163972   -0.0700
     14 C14        -7.7528   -0.6165   62.8624 C.ar    1  ZINC000460163972   -0.1200
     15 C15        -8.4808    0.3789   63.4900 C.ar    1  ZINC000460163972    0.0700
     16 F16        -8.0453    0.9017   64.6572 F       1  ZINC000460163972   -0.1300
     17 C17        -9.6578    0.8399   62.9193 C.ar    1  ZINC000460163972    0.0700
     18 F18       -10.3703    1.8117   63.5301 F       1  ZINC000460163972   -0.1300
     19 C19       -10.0991    0.3067   61.7211 C.ar    1  ZINC000460163972   -0.1200
     20 C20        -9.0121   -0.2433   55.2418 C.ar    1  ZINC000460163972    0.0000
     21 C21        -9.9460   -1.4002   54.9959 C.3     1  ZINC000460163972   -0.1500
     22 C22        -8.2681    0.2777   54.2017 C.ar    1  ZINC000460163972   -0.6700
     23 S23        -8.4068   -0.4147   52.5874 S.o2    1  ZINC000460163972    2.7000
     24 O24        -8.1260    0.6371   51.6741 O.2     1  ZINC000460163972   -0.9500
     25 O25        -7.6828   -1.6371   52.6115 O.2     1  ZINC000460163972   -0.9500
     26 N26        -9.9973   -0.8175   52.3619 N.am    1  ZINC000460163972   -1.0900
     27 C27       -11.0319    0.2172   52.4317 C.3     1  ZINC000460163972    0.0800
     28 C28       -12.0858    0.2384   51.3227 C.3     1  ZINC000460163972   -0.1800
     29 C29       -12.4635   -0.2342   52.7280 C.3     1  ZINC000460163972   -0.1900
     30 H30        -7.1916    2.6240   52.7396 H       1  ZINC000460163972    0.1000
     31 H31        -5.7043    2.3892   53.6889 H       1  ZINC000460163972    0.0800
     32 H32        -6.2944    1.0912   52.6234 H       1  ZINC000460163972    0.0700
     33 H33        -6.6262    2.7123   55.8651 H       1  ZINC000460163972    0.1400
     34 H34        -7.9536    1.7966   57.7246 H       1  ZINC000460163972    0.1600
     35 H35       -10.6273   -0.2255   57.5148 H       1  ZINC000460163972    0.4100
     36 H36       -10.2903   -3.2038   60.6531 H       1  ZINC000460163972    0.0800
     37 H37       -10.0513   -3.2193   58.8893 H       1  ZINC000460163972    0.0700
     38 H38        -8.6513   -3.0520   59.9758 H       1  ZINC000460163972    0.0700
     39 H39        -7.6304   -1.9274   61.1784 H       1  ZINC000460163972    0.1400
     40 H40        -6.8363   -0.9765   63.3060 H       1  ZINC000460163972    0.1500
     41 H41       -11.0154    0.6651   61.2755 H       1  ZINC000460163972    0.1500
     42 H42       -10.8919   -1.0265   54.6038 H       1  ZINC000460163972    0.1000
     43 H43        -9.4973   -2.0821   54.2736 H       1  ZINC000460163972    0.1000
     44 H44       -10.1243   -1.9287   55.9324 H       1  ZINC000460163972    0.0700
     45 H45       -10.2436   -1.7386   52.1835 H       1  ZINC000460163972    0.4200
     46 H46       -10.7117    1.1756   52.8404 H       1  ZINC000460163972    0.1300
     47 H47       -12.4590    1.2108   51.0015 H       1  ZINC000460163972    0.1100
     48 H48       -12.0092   -0.5175   50.5411 H       1  ZINC000460163972    0.1000
     49 H49       -12.6354   -1.3010   52.8710 H       1  ZINC000460163972    0.1000
     50 H50       -13.0851    0.4274   53.3314 H       1  ZINC000460163972    0.1000
@<TRIPOS>BOND
     1     1     2    1
     2     1    30    1
     3     1    31    1
     4     1    32    1
     5     2    22   ar
     6     2     3   ar
     7     3     4   ar
     8     3    33    1
     9     4     5   ar
    10     4    34    1
    11     5     6    1
    12     5    20   ar
    13     6     7   am
    14     6    35    1
    15     7     8    2
    16     7     9    1
    17     9    10    1
    18     9    11    1
    19     9    12    1
    20    11    36    1
    21    11    37    1
    22    11    38    1
    23    12    19   ar
    24    12    13   ar
    25    13    14   ar
    26    13    39    1
    27    14    15   ar
    28    14    40    1
    29    15    16    1
    30    15    17   ar
    31    17    18    1
    32    17    19   ar
    33    19    41    1
    34    20    21    1
    35    20    22   ar
    36    21    42    1
    37    21    43    1
    38    21    44    1
    39    22    23    1
    40    23    24    2
    41    23    25    2
    42    23    26   am
    43    26    27    1
    44    26    45    1
    45    27    29    1
    46    27    28    1
    47    27    46    1
    48    28    29    1
    49    28    47    1
    50    28    48    1
    51    29    49    1
    52    29    50    1
@<TRIPOS>SUBSTRUCTURE
     1 ZINC000460163972        1 TEMP              0 ****  ****    0 ROOT


##########                                Name:    ZINC001060578637
##########                DOCK_Rotatable_Bonds:                  10
##########                         Heavy_Atoms:                  25
##########                    Molecular_Weight:             345.401
##########                DOCK_Rotatable_Bonds:                  10
##########                       Formal_Charge:          -0.0400001
##########                     HBond_Acceptors:                   8
##########                        HBond_Donors:                   3
##########                         Heavy_Atoms:                  25
##########                          Grid_Score:          -30.880255
##########                     Grid_vdw_energy:          -28.395737
##########                      Grid_es_energy:           -2.484517
##########           Internal_energy_repulsive:            9.254773

@<TRIPOS>MOLECULE
ZINC001060578637
 48 49 1 0 0
SMALL
USER_CHARGES


@<TRIPOS>ATOM
      1 C1         -7.8940    2.2074   58.3684 C.3     1  ZINC001060578637   -0.1500
      2 C2         -7.1674    1.1810   57.4971 C.3     1  ZINC001060578637   -0.1300
      3 C3         -7.5588    1.3870   56.0324 C.3     1  ZINC001060578637    0.0700
      4 H4         -8.6420    1.4816   55.9557 H       1  ZINC001060578637    0.0900
      5 O5         -7.1227    0.2662   55.2607 O.3     1  ZINC001060578637   -0.3600
      6 C6         -7.5720    0.2842   53.9042 C.3     1  ZINC001060578637    0.0300
      7 C7         -6.9068    2.6410   55.5097 C.2     1  ZINC001060578637    0.5000
      8 O8         -7.5314    3.6800   55.4749 O.2     1  ZINC001060578637   -0.5200
      9 N9         -5.6294    2.6079   55.0809 N.am    1  ZINC001060578637   -0.7300
     10 C10        -4.9949    3.8273   54.5744 C.3     1  ZINC001060578637    0.1600
     11 C11        -3.7422    3.4653   53.8190 C.ar    1  ZINC001060578637   -0.1100
     12 C12        -3.7849    3.3031   52.4469 C.ar    1  ZINC001060578637   -0.0900
     13 C13        -2.6357    2.9710   51.7540 C.ar    1  ZINC001060578637   -0.1100
     14 C14        -1.4438    2.8015   52.4333 C.ar    1  ZINC001060578637   -0.0900
     15 C15        -0.1911    2.4390   51.6781 C.3     1  ZINC001060578637    0.1800
     16 H16         0.5167    1.9622   52.3563 H       1  ZINC001060578637    0.1000
     17 C17         0.4369    3.7059   51.0938 C.3     1  ZINC001060578637   -0.1600
     18 N18        -0.5256    1.5142   50.5923 N.am    1  ZINC001060578637   -0.7000
     19 C19         0.2888    0.4766   50.3158 C.2     1  ZINC001060578637    0.6100
     20 O20         1.3022    0.3089   50.9666 O.2     1  ZINC001060578637   -0.5300
     21 C21        -0.0489   -0.4552   49.2241 C.2     1  ZINC001060578637    0.1200
     22 N22        -1.0182   -0.3138   48.3454 N.2     1  ZINC001060578637   -0.2400
     23 N23        -1.0173   -1.3174   47.5416 N.2     1  ZINC001060578637   -0.2900
     24 C24        -0.0541   -2.1465   47.8623 C.2     1  ZINC001060578637    0.1900
     25 N25         0.5910   -1.6310   48.9274 N.pl3   1  ZINC001060578637   -0.5500
     26 C26        -1.4008    2.9650   53.8053 C.ar    1  ZINC001060578637   -0.1100
     27 C27        -2.5491    3.3009   54.4976 C.ar    1  ZINC001060578637   -0.0900
     28 H28        -7.5914    2.0809   59.4079 H       1  ZINC001060578637    0.0600
     29 H29        -7.6378    3.2132   58.0354 H       1  ZINC001060578637    0.0500
     30 H30        -8.9706    2.0595   58.2829 H       1  ZINC001060578637    0.0600
     31 H31        -6.0905    1.3088   57.6067 H       1  ZINC001060578637    0.0800
     32 H32        -7.4476    0.1752   57.8101 H       1  ZINC001060578637    0.0800
     33 H33        -7.1363   -0.5576   53.3659 H       1  ZINC001060578637    0.0900
     34 H34        -8.6590    0.2072   53.8807 H       1  ZINC001060578637    0.0500
     35 H35        -7.2633    1.2167   53.4317 H       1  ZINC001060578637    0.0400
     36 H36        -5.1303    1.7766   55.1077 H       1  ZINC001060578637    0.4000
     37 H37        -5.6842    4.3456   53.9078 H       1  ZINC001060578637    0.0800
     38 H38        -4.7396    4.4783   55.4106 H       1  ZINC001060578637    0.0800
     39 H39        -4.7161    3.4356   51.9162 H       1  ZINC001060578637    0.1300
     40 H40        -2.6693    2.8436   50.6821 H       1  ZINC001060578637    0.1300
     41 H41        -0.2709    4.1826   50.4157 H       1  ZINC001060578637    0.0600
     42 H42         0.6859    4.3939   51.9016 H       1  ZINC001060578637    0.0700
     43 H43         1.3430    3.4436   50.5476 H       1  ZINC001060578637    0.0700
     44 H44        -1.3334    1.6487   50.0724 H       1  ZINC001060578637    0.4100
     45 H45         0.1823   -3.0734   47.3609 H       1  ZINC001060578637    0.2300
     46 H46         1.3498   -2.0162   49.3929 H       1  ZINC001060578637    0.4400
     47 H47        -0.4694    2.8330   54.3359 H       1  ZINC001060578637    0.1300
     48 H48        -2.5155    3.4286   55.5696 H       1  ZINC001060578637    0.1300
@<TRIPOS>BOND
     1     1     2    1
     2     1    28    1
     3     1    29    1
     4     1    30    1
     5     2     3    1
     6     2    31    1
     7     2    32    1
     8     3     4    1
     9     3     5    1
    10     3     7    1
    11     5     6    1
    12     6    33    1
    13     6    34    1
    14     6    35    1
    15     7     8    2
    16     7     9   am
    17     9    10    1
    18     9    36    1
    19    10    11    1
    20    10    37    1
    21    10    38    1
    22    11    27   ar
    23    11    12   ar
    24    12    13   ar
    25    12    39    1
    26    13    14   ar
    27    13    40    1
    28    14    15    1
    29    14    26   ar
    30    15    16    1
    31    15    17    1
    32    15    18    1
    33    17    41    1
    34    17    42    1
    35    17    43    1
    36    18    19   am
    37    18    44    1
    38    19    20    2
    39    19    21    1
    40    21    25    1
    41    21    22    2
    42    22    23    1
    43    23    24    2
    44    24    25    1
    45    24    45    1
    46    25    46    1
    47    26    27   ar
    48    26    47    1
    49    27    48    1
@<TRIPOS>SUBSTRUCTURE
     1 ZINC001060578637        1 TEMP              0 ****  ****    0 ROOT


##########                                Name:    ZINC001312809190
##########                DOCK_Rotatable_Bonds:                   6
##########                         Heavy_Atoms:                  29
##########                    Molecular_Weight:             395.501
##########                DOCK_Rotatable_Bonds:                   6
##########                       Formal_Charge:           0.0199995
##########                     HBond_Acceptors:                   6
##########                        HBond_Donors:                   1
##########                         Heavy_Atoms:                  29
##########                          Grid_Score:          -30.875999
##########                     Grid_vdw_energy:          -29.627502
##########                      Grid_es_energy:           -1.248497
##########           Internal_energy_repulsive:           30.322065

@<TRIPOS>MOLECULE
ZINC001312809190
 58 61 1 0 0
SMALL
USER_CHARGES


@<TRIPOS>ATOM
      1 C1         -7.8703    0.1790   65.1292 C.3     1  ZINC001312809190    0.0300
      2 O2         -9.2109    0.6611   65.0173 O.3     1  ZINC001312809190   -0.3200
      3 C3         -9.9025    0.3076   63.9021 C.ar    1  ZINC001312809190    0.1300
      4 C4        -11.2085    0.7410   63.7279 C.ar    1  ZINC001312809190   -0.2100
      5 C5        -11.9093    0.3807   62.5930 C.ar    1  ZINC001312809190   -0.0800
      6 C6        -11.3100   -0.4116   61.6316 C.ar    1  ZINC001312809190   -0.1300
      7 C7        -10.0081   -0.8454   61.8031 C.ar    1  ZINC001312809190   -0.0500
      8 C8         -9.3581   -1.7093   60.7533 C.3     1  ZINC001312809190    0.1200
      9 H9         -9.2983   -2.7362   61.1138 H       1  ZINC001312809190    0.0500
     10 C10        -7.9491   -1.1875   60.4642 C.3     1  ZINC001312809190   -0.1400
     11 N11       -10.1577   -1.6685   59.5216 N.3     1  ZINC001312809190   -0.5300
     12 C12        -9.9712   -2.8933   58.7322 C.3     1  ZINC001312809190    0.0300
     13 C13       -10.9525   -2.8927   57.5552 C.3     1  ZINC001312809190    0.1400
     14 N14       -10.7832   -1.6383   56.8063 N.am    1  ZINC001312809190   -0.6300
     15 C15       -10.5991   -1.6491   55.4712 C.2     1  ZINC001312809190    0.7100
     16 O16       -10.5714   -2.7056   54.8699 O.2     1  ZINC001312809190   -0.5800
     17 N17       -10.4458   -0.4890   54.8027 N.am    1  ZINC001312809190   -0.7300
     18 C18       -10.2458   -0.5008   53.3515 C.3     1  ZINC001312809190    0.1800
     19 H19        -9.9523   -1.4930   53.0088 H       1  ZINC001312809190    0.1200
     20 C20       -11.4907   -0.0240   52.6288 C.ar    1  ZINC001312809190   -0.1900
     21 C21       -12.8232   -0.3378   52.7773 C.ar    1  ZINC001312809190   -0.0500
     22 C22       -13.7701    0.2668   51.9691 C.ar    1  ZINC001312809190   -0.1500
     23 C23       -13.3729    1.1845   51.0147 C.ar    1  ZINC001312809190   -0.0800
     24 C24       -12.0379    1.4977   50.8618 C.ar    1  ZINC001312809190   -0.1400
     25 C25       -11.0785    0.8915   51.6686 C.ar    1  ZINC001312809190    0.1100
     26 O26        -9.7250    1.0375   51.6758 O.3     1  ZINC001312809190   -0.2900
     27 C27        -9.2031    0.5610   52.9285 C.3     1  ZINC001312809190    0.0800
     28 H28        -9.1562    1.3683   53.6594 H       1  ZINC001312809190    0.0900
     29 C29        -7.8241   -0.0730   52.7352 C.3     1  ZINC001312809190   -0.1500
     30 C30       -10.8205   -0.3716   57.5530 C.3     1  ZINC001312809190    0.1200
     31 C31        -9.8445   -0.4714   58.7300 C.3     1  ZINC001312809190    0.0400
     32 C32        -9.3013   -0.4827   62.9330 C.ar    1  ZINC001312809190   -0.1500
     33 H33        -7.4338    0.5330   66.0631 H       1  ZINC001312809190    0.1000
     34 H34        -7.8742   -0.9110   65.1201 H       1  ZINC001312809190    0.0600
     35 H35        -7.2805    0.5473   64.2899 H       1  ZINC001312809190    0.0600
     36 H36       -11.6775    1.3594   64.4790 H       1  ZINC001312809190    0.1300
     37 H37       -12.9262    0.7179   62.4570 H       1  ZINC001312809190    0.1300
     38 H38       -11.8595   -0.6924   60.7453 H       1  ZINC001312809190    0.1300
     39 H39        -8.0089   -0.1605   60.1036 H       1  ZINC001312809190    0.0700
     40 H40        -7.3558   -1.2177   61.3781 H       1  ZINC001312809190    0.0600
     41 H41        -7.4790   -1.8124   59.7048 H       1  ZINC001312809190    0.0600
     42 H42        -8.9495   -2.9302   58.3539 H       1  ZINC001312809190    0.0400
     43 H43       -10.1582   -3.7635   59.3613 H       1  ZINC001312809190    0.1000
     44 H44       -10.7421   -3.7401   56.9027 H       1  ZINC001312809190    0.1000
     45 H45       -11.9738   -2.9605   57.9300 H       1  ZINC001312809190    0.0700
     46 H46       -10.4681    0.3539   55.2824 H       1  ZINC001312809190    0.4000
     47 H47       -13.1292   -1.0556   53.5239 H       1  ZINC001312809190    0.1200
     48 H48       -14.8158    0.0222   52.0835 H       1  ZINC001312809190    0.1300
     49 H49       -14.1113    1.6586   50.3852 H       1  ZINC001312809190    0.1300
     50 H50       -11.7359    2.2154   50.1134 H       1  ZINC001312809190    0.1300
     51 H51        -7.1307    0.6753   52.3513 H       1  ZINC001312809190    0.0800
     52 H52        -7.4600   -0.4494   53.6911 H       1  ZINC001312809190    0.0800
     53 H53        -7.8992   -0.8967   52.0251 H       1  ZINC001312809190    0.0700
     54 H54       -10.5228    0.4478   56.8988 H       1  ZINC001312809190    0.0800
     55 H55       -11.8292   -0.1971   57.9275 H       1  ZINC001312809190    0.0800
     56 H56        -9.9395    0.4148   59.3575 H       1  ZINC001312809190    0.0900
     57 H57        -8.8246   -0.5421   58.3518 H       1  ZINC001312809190    0.0400
     58 H58        -8.2845   -0.8215   63.0663 H       1  ZINC001312809190    0.1300
@<TRIPOS>BOND
     1     1     2    1
     2     1    33    1
     3     1    34    1
     4     1    35    1
     5     2     3    1
     6     3    32   ar
     7     3     4   ar
     8     4     5   ar
     9     4    36    1
    10     5     6   ar
    11     5    37    1
    12     6     7   ar
    13     6    38    1
    14     7     8    1
    15     7    32   ar
    16     8     9    1
    17     8    10    1
    18     8    11    1
    19    10    39    1
    20    10    40    1
    21    10    41    1
    22    11    31    1
    23    11    12    1
    24    12    13    1
    25    12    42    1
    26    12    43    1
    27    13    14    1
    28    13    44    1
    29    13    45    1
    30    14    15   am
    31    14    30    1
    32    15    16    2
    33    15    17   am
    34    17    18    1
    35    17    46    1
    36    18    19    1
    37    18    27    1
    38    18    20    1
    39    20    25   ar
    40    20    21   ar
    41    21    22   ar
    42    21    47    1
    43    22    23   ar
    44    22    48    1
    45    23    24   ar
    46    23    49    1
    47    24    25   ar
    48    24    50    1
    49    25    26    1
    50    26    27    1
    51    27    28    1
    52    27    29    1
    53    29    51    1
    54    29    52    1
    55    29    53    1
    56    30    31    1
    57    30    54    1
    58    30    55    1
    59    31    56    1
    60    31    57    1
    61    32    58    1
@<TRIPOS>SUBSTRUCTURE
     1 ZINC001312809190        1 TEMP              0 ****  ****    0 ROOT


##########                                Name:    ZINC000502834785
##########                DOCK_Rotatable_Bonds:                   9
##########                         Heavy_Atoms:                  26
##########                    Molecular_Weight:             356.468
##########                DOCK_Rotatable_Bonds:                   9
##########                       Formal_Charge:           0.0199998
##########                     HBond_Acceptors:                   6
##########                        HBond_Donors:                   2
##########                         Heavy_Atoms:                  26
##########                          Grid_Score:          -30.828907
##########                     Grid_vdw_energy:          -29.887707
##########                      Grid_es_energy:           -0.941200
##########           Internal_energy_repulsive:           16.014515

@<TRIPOS>MOLECULE
ZINC000502834785
 54 56 1 0 0
SMALL
USER_CHARGES


@<TRIPOS>ATOM
      1 C1          1.1194   -0.6965   47.2799 C.3     1  ZINC000502834785   -0.1800
      2 C2         -0.3376   -0.3865   47.6296 C.3     1  ZINC000502834785    0.0800
      3 C3         -1.2413   -1.4880   47.0717 C.3     1  ZINC000502834785   -0.1500
      4 O4         -0.4836   -0.3242   49.0498 O.3     1  ZINC000502834785   -0.3800
      5 C5         -0.0030    0.8896   49.6308 C.3     1  ZINC000502834785    0.1000
      6 C6         -1.1035    1.5316   50.4355 C.ar    1  ZINC000502834785   -0.0800
      7 C7         -0.8296    2.0589   51.6837 C.ar    1  ZINC000502834785   -0.1000
      8 C8         -1.8391    2.6478   52.4219 C.ar    1  ZINC000502834785   -0.1000
      9 C9         -3.1224    2.7098   51.9118 C.ar    1  ZINC000502834785   -0.1000
     10 C10        -4.2231    3.3513   52.7168 C.3     1  ZINC000502834785    0.1600
     11 N11        -5.2594    2.3571   53.0064 N.am    1  ZINC000502834785   -0.7300
     12 C12        -6.4847    2.7563   53.4008 C.2     1  ZINC000502834785    0.5100
     13 O13        -6.7299    3.9386   53.5147 O.2     1  ZINC000502834785   -0.5200
     14 C14        -7.5502    1.7335   53.7004 C.3     1  ZINC000502834785    0.0300
     15 N15        -8.2589    2.1106   54.9307 N.3     1  ZINC000502834785   -0.5000
     16 C16        -7.3768    1.9837   56.1104 C.3     1  ZINC000502834785    0.0500
     17 C17        -8.3166    1.5476   57.2620 C.3     1  ZINC000502834785   -0.1300
     18 C18        -9.2969    0.5983   56.5240 C.3     1  ZINC000502834785   -0.1300
     19 C19        -9.4458    1.2610   55.1384 C.3     1  ZINC000502834785    0.1500
     20 H20       -10.3481    1.8721   55.1147 H       1  ZINC000502834785    0.1100
     21 C21        -9.5160    0.2020   54.0685 C.2     1  ZINC000502834785    0.0600
     22 N22        -8.8607   -0.9304   54.0658 N.2     1  ZINC000502834785   -0.2900
     23 N23        -9.2007   -1.6301   52.9008 N.pl3   1  ZINC000502834785   -0.4800
     24 C24       -10.0810   -0.8787   52.2071 C.2     1  ZINC000502834785    0.0600
     25 C25       -10.2975    0.2573   52.9098 C.2     1  ZINC000502834785   -0.2600
     26 C26        -3.3960    2.1837   50.6631 C.ar    1  ZINC000502834785   -0.1000
     27 C27        -2.3857    1.5982   49.9233 C.ar    1  ZINC000502834785   -0.1000
     28 H28         1.7632    0.0882   47.6773 H       1  ZINC000502834785    0.0600
     29 H29         1.4020   -1.6544   47.7166 H       1  ZINC000502834785    0.0600
     30 H30         1.2308   -0.7441   46.1966 H       1  ZINC000502834785    0.0700
     31 H31        -0.6202    0.5713   47.1928 H       1  ZINC000502834785    0.0600
     32 H32        -0.9586   -2.4458   47.5085 H       1  ZINC000502834785    0.0600
     33 H33        -2.2792   -1.2671   47.3208 H       1  ZINC000502834785    0.0600
     34 H34        -1.1299   -1.5354   45.9885 H       1  ZINC000502834785    0.0700
     35 H35         0.8431    0.6706   50.2821 H       1  ZINC000502834785    0.0600
     36 H36         0.3137    1.5702   48.8404 H       1  ZINC000502834785    0.0600
     37 H37         0.1730    2.0105   52.0822 H       1  ZINC000502834785    0.1300
     38 H38        -1.6253    3.0591   53.3973 H       1  ZINC000502834785    0.1300
     39 H39        -3.8140    3.7327   53.6524 H       1  ZINC000502834785    0.0800
     40 H40        -4.6573    4.1736   52.1481 H       1  ZINC000502834785    0.0800
     41 H41        -5.0637    1.4115   52.9141 H       1  ZINC000502834785    0.4000
     42 H42        -8.2574    1.6921   52.8719 H       1  ZINC000502834785    0.1000
     43 H43        -7.0879    0.7554   53.8327 H       1  ZINC000502834785    0.0800
     44 H44        -6.6148    1.2245   55.9344 H       1  ZINC000502834785    0.0400
     45 H45        -6.9124    2.9423   56.3419 H       1  ZINC000502834785    0.1000
     46 H46        -7.7646    1.0142   58.0358 H       1  ZINC000502834785    0.0800
     47 H47        -8.8442    2.4045   57.6811 H       1  ZINC000502834785    0.0800
     48 H48        -8.8692   -0.3999   56.4299 H       1  ZINC000502834785    0.0800
     49 H49       -10.2572    0.5603   57.0383 H       1  ZINC000502834785    0.0800
     50 H50        -8.8631   -2.5010   52.6391 H       1  ZINC000502834785    0.4400
     51 H51       -10.5349   -1.1392   51.2623 H       1  ZINC000502834785    0.1800
     52 H52       -10.9530    1.0664   52.6235 H       1  ZINC000502834785    0.1500
     53 H53        -4.3986    2.2324   50.2644 H       1  ZINC000502834785    0.1300
     54 H54        -2.5994    1.1872   48.9477 H       1  ZINC000502834785    0.1200
@<TRIPOS>BOND
     1     1     2    1
     2     1    28    1
     3     1    29    1
     4     1    30    1
     5     2     3    1
     6     2     4    1
     7     2    31    1
     8     3    32    1
     9     3    33    1
    10     3    34    1
    11     4     5    1
    12     5     6    1
    13     5    35    1
    14     5    36    1
    15     6    27   ar
    16     6     7   ar
    17     7     8   ar
    18     7    37    1
    19     8     9   ar
    20     8    38    1
    21     9    10    1
    22     9    26   ar
    23    10    11    1
    24    10    39    1
    25    10    40    1
    26    11    12   am
    27    11    41    1
    28    12    13    2
    29    12    14    1
    30    14    15    1
    31    14    42    1
    32    14    43    1
    33    15    19    1
    34    15    16    1
    35    16    17    1
    36    16    44    1
    37    16    45    1
    38    17    18    1
    39    17    46    1
    40    17    47    1
    41    18    19    1
    42    18    48    1
    43    18    49    1
    44    19    20    1
    45    19    21    1
    46    21    25    1
    47    21    22    2
    48    22    23    1
    49    23    24    1
    50    23    50    1
    51    24    25    2
    52    24    51    1
    53    25    52    1
    54    26    27   ar
    55    26    53    1
    56    27    54    1
@<TRIPOS>SUBSTRUCTURE
     1 ZINC000502834785        1 TEMP              0 ****  ****    0 ROOT


##########                                Name:    ZINC000464867530
##########                DOCK_Rotatable_Bonds:                   8
##########                         Heavy_Atoms:                  30
##########                    Molecular_Weight:              422.49
##########                DOCK_Rotatable_Bonds:                   8
##########                       Formal_Charge:         -0.00999994
##########                     HBond_Acceptors:                   7
##########                        HBond_Donors:                   0
##########                         Heavy_Atoms:                  30
##########                          Grid_Score:          -30.825737
##########                     Grid_vdw_energy:          -30.159069
##########                      Grid_es_energy:           -0.666668
##########           Internal_energy_repulsive:           35.240616

@<TRIPOS>MOLECULE
ZINC000464867530
 59 62 1 0 0
SMALL
USER_CHARGES


@<TRIPOS>ATOM
      1 C1         -6.0533   -0.9870   51.8259 C.3     1  ZINC000464867530   -0.1500
      2 C2         -7.5316   -1.2252   51.5112 C.3     1  ZINC000464867530   -0.1400
      3 C3         -8.3159    0.0690   51.7371 C.3     1  ZINC000464867530    0.0900
      4 N4         -8.9527    0.0301   53.0560 N.am    1  ZINC000464867530   -0.6100
      5 C5        -10.1868   -0.7347   53.2512 C.3     1  ZINC000464867530    0.0700
      6 C6        -11.1455   -0.4610   52.0906 C.3     1  ZINC000464867530    0.4300
      7 F7        -10.7932   -1.2588   50.9967 F       1  ZINC000464867530   -0.1700
      8 F8        -12.4535   -0.7620   52.4852 F       1  ZINC000464867530   -0.1800
      9 F9        -11.0663    0.8881   51.7287 F       1  ZINC000464867530   -0.1800
     10 C10        -8.4029    0.6978   54.0896 C.2     1  ZINC000464867530    0.5300
     11 O11        -7.3811    1.3309   53.9278 O.2     1  ZINC000464867530   -0.5100
     12 C12        -9.0577    0.6578   55.4463 C.3     1  ZINC000464867530   -0.1200
     13 H13        -9.4943   -0.3274   55.6106 H       1  ZINC000464867530    0.1000
     14 C14       -10.1562    1.7211   55.5148 C.3     1  ZINC000464867530   -0.1200
     15 C15       -10.8438    1.6594   56.8806 C.3     1  ZINC000464867530   -0.1300
     16 C16        -9.8169    1.9536   57.9787 C.3     1  ZINC000464867530    0.1000
     17 N17        -8.6866    1.0268   57.8296 N.am    1  ZINC000464867530   -0.6100
     18 C18        -8.2777    0.2700   58.8673 C.2     1  ZINC000464867530    0.5500
     19 O19        -7.3425   -0.4901   58.7320 O.2     1  ZINC000464867530   -0.5300
     20 C20        -8.9827    0.3685   60.1956 C.3     1  ZINC000464867530   -0.1700
     21 H21        -9.2467    1.3768   60.5143 H       1  ZINC000464867530    0.1300
     22 C22        -8.5885   -0.6363   61.2817 C.3     1  ZINC000464867530   -0.1300
     23 C23        -9.9335   -0.7611   60.5735 C.3     1  ZINC000464867530   -0.0600
     24 C24       -10.2182   -1.9193   59.6027 C.3     1  ZINC000464867530   -0.0900
     25 C25       -11.7363   -1.7737   59.3565 C.3     1  ZINC000464867530   -0.0800
     26 C26       -12.2745   -1.0794   60.5898 C.ar    1  ZINC000464867530   -0.0900
     27 C27       -13.5708   -0.9677   61.0621 C.ar    1  ZINC000464867530   -0.1100
     28 C28       -13.8296   -0.2739   62.2283 C.ar    1  ZINC000464867530   -0.1100
     29 C29       -12.7908    0.3114   62.9271 C.ar    1  ZINC000464867530   -0.1200
     30 C30       -11.4961    0.2013   62.4581 C.ar    1  ZINC000464867530   -0.1000
     31 C31       -11.2336   -0.4937   61.2898 C.ar    1  ZINC000464867530   -0.0700
     32 C32        -8.0104    0.9399   56.5281 C.3     1  ZINC000464867530    0.1300
     33 H33        -5.6637   -0.2071   51.1717 H       1  ZINC000464867530    0.0600
     34 H34        -5.9486   -0.6755   52.8651 H       1  ZINC000464867530    0.0600
     35 H35        -5.4945   -1.9090   51.6649 H       1  ZINC000464867530    0.0600
     36 H36        -7.6363   -1.5367   50.4720 H       1  ZINC000464867530    0.0700
     37 H37        -7.9212   -2.0051   52.1654 H       1  ZINC000464867530    0.0700
     38 H38        -7.6359    0.9193   51.6869 H       1  ZINC000464867530    0.0900
     39 H39        -9.0808    0.1694   50.9672 H       1  ZINC000464867530    0.0900
     40 H40        -9.9531   -1.7988   53.2862 H       1  ZINC000464867530    0.1300
     41 H41       -10.6558   -0.4348   54.1883 H       1  ZINC000464867530    0.1200
     42 H42        -9.7155    2.7082   55.3745 H       1  ZINC000464867530    0.0800
     43 H43       -10.8899    1.5364   54.7302 H       1  ZINC000464867530    0.0800
     44 H44       -11.6415    2.4013   56.9203 H       1  ZINC000464867530    0.0900
     45 H45       -11.2635    0.6649   57.0321 H       1  ZINC000464867530    0.0700
     46 H46        -9.4630    2.9801   57.8824 H       1  ZINC000464867530    0.0700
     47 H47       -10.2774    1.8140   58.9566 H       1  ZINC000464867530    0.0900
     48 H48        -7.8194   -1.3683   61.0354 H       1  ZINC000464867530    0.1100
     49 H49        -8.5941   -0.2890   62.3149 H       1  ZINC000464867530    0.1100
     50 H50        -9.6608   -1.7935   58.6745 H       1  ZINC000464867530    0.0700
     51 H51        -9.9905   -2.8792   60.0663 H       1  ZINC000464867530    0.0800
     52 H52       -11.9191   -1.1659   58.4705 H       1  ZINC000464867530    0.0800
     53 H53       -12.1968   -2.7553   59.2442 H       1  ZINC000464867530    0.0800
     54 H54       -14.3833   -1.4244   60.5164 H       1  ZINC000464867530    0.1200
     55 H55       -14.8425   -0.1888   62.5934 H       1  ZINC000464867530    0.1300
     56 H56       -12.9910    0.8547   63.8388 H       1  ZINC000464867530    0.1300
     57 H57       -10.6854    0.6596   63.0050 H       1  ZINC000464867530    0.1200
     58 H58        -7.2792    0.1318   56.5494 H       1  ZINC000464867530    0.1000
     59 H59        -7.5090    1.8835   56.3130 H       1  ZINC000464867530    0.0800
@<TRIPOS>BOND
     1     1     2    1
     2     1    33    1
     3     1    34    1
     4     1    35    1
     5     2     3    1
     6     2    36    1
     7     2    37    1
     8     3     4    1
     9     3    38    1
    10     3    39    1
    11     4     5    1
    12     4    10   am
    13     5     6    1
    14     5    40    1
    15     5    41    1
    16     6     7    1
    17     6     8    1
    18     6     9    1
    19    10    11    2
    20    10    12    1
    21    12    13    1
    22    12    32    1
    23    12    14    1
    24    14    15    1
    25    14    42    1
    26    14    43    1
    27    15    16    1
    28    15    44    1
    29    15    45    1
    30    16    17    1
    31    16    46    1
    32    16    47    1
    33    17    18   am
    34    17    32    1
    35    18    19    2
    36    18    20    1
    37    20    21    1
    38    20    23    1
    39    20    22    1
    40    22    23    1
    41    22    48    1
    42    22    49    1
    43    23    31    1
    44    23    24    1
    45    24    25    1
    46    24    50    1
    47    24    51    1
    48    25    26    1
    49    25    52    1
    50    25    53    1
    51    26    31   ar
    52    26    27   ar
    53    27    28   ar
    54    27    54    1
    55    28    29   ar
    56    28    55    1
    57    29    30   ar
    58    29    56    1
    59    30    31   ar
    60    30    57    1
    61    32    58    1
    62    32    59    1
@<TRIPOS>SUBSTRUCTURE
     1 ZINC000464867530        1 TEMP              0 ****  ****    0 ROOT


##########                                Name:    ZINC000499369364
##########                DOCK_Rotatable_Bonds:                   9
##########                         Heavy_Atoms:                  25
##########                    Molecular_Weight:             384.527
##########                DOCK_Rotatable_Bonds:                   9
##########                       Formal_Charge:        -5.88596e-07
##########                     HBond_Acceptors:                  10
##########                        HBond_Donors:                   1
##########                         Heavy_Atoms:                  25
##########                          Grid_Score:          -30.813366
##########                     Grid_vdw_energy:          -29.725447
##########                      Grid_es_energy:           -1.087920
##########           Internal_energy_repulsive:           16.185829

@<TRIPOS>MOLECULE
ZINC000499369364
 49 51 1 0 0
SMALL
USER_CHARGES


@<TRIPOS>ATOM
      1 C1        -10.2033    1.8790   63.3379 C.3     1  ZINC000499369364   -0.1500
      2 C2         -9.1553    2.8344   62.7635 C.3     1  ZINC000499369364   -0.1000
      3 C3         -7.7606    2.3869   63.2055 C.3     1  ZINC000499369364   -0.1500
      4 C4         -9.2352    2.8199   61.2357 C.3     1  ZINC000499369364    0.1500
      5 H5        -10.2802    2.8360   60.9263 H       1  ZINC000499369364    0.0900
      6 C6         -8.5186    4.0503   60.6758 C.3     1  ZINC000499369364   -0.1700
      7 N7         -8.5931    1.6063   60.7246 N.am    1  ZINC000499369364   -0.7200
      8 C8         -9.3369    0.6439   60.1439 C.2     1  ZINC000499369364    0.5100
      9 O9        -10.5375    0.7833   60.0430 O.2     1  ZINC000499369364   -0.5100
     10 C10        -8.6768   -0.6054   59.6198 C.3     1  ZINC000499369364    0.1200
     11 H11        -7.6115   -0.4114   59.4945 H       1  ZINC000499369364    0.1200
     12 C12        -8.8573   -1.7358   60.6584 C.3     1  ZINC000499369364   -0.0800
     13 S13       -10.3083   -2.6350   59.9659 S.3     1  ZINC000499369364   -0.2400
     14 C14        -9.8645   -2.2626   58.2187 C.3     1  ZINC000499369364    0.1400
     15 N15        -9.2495   -0.9278   58.3218 N.am    1  ZINC000499369364   -0.6000
     16 C16        -9.2163   -0.0655   57.2866 C.2     1  ZINC000499369364    0.5600
     17 O17        -8.6974    1.0226   57.4202 O.2     1  ZINC000499369364   -0.5000
     18 C18        -9.8238   -0.4532   55.9632 C.3     1  ZINC000499369364   -0.1500
     19 S19        -9.4082    0.7949   54.7198 S.3     1  ZINC000499369364    0.1300
     20 C20        -9.4561   -0.1961   53.2637 C.2     1  ZINC000499369364    0.2000
     21 N21       -10.5304   -0.7018   52.6975 N.2     1  ZINC000499369364   -0.3400
     22 N22       -10.2127   -1.3742   51.6504 N.2     1  ZINC000499369364   -0.0300
     23 N23        -8.9363   -1.3493   51.4722 N.2     1  ZINC000499369364   -0.0800
     24 N24        -8.3947   -0.5756   52.5136 N.pl3   1  ZINC000499369364   -0.3300
     25 C25        -6.9836   -0.2561   52.7431 C.3     1  ZINC000499369364    0.0500
     26 C26        -5.9419   -1.0470   51.9491 C.3     1  ZINC000499369364   -0.1500
     27 C27        -6.2173    0.4178   51.6031 C.3     1  ZINC000499369364   -0.1600
     28 H28       -10.1464    1.8892   64.4264 H       1  ZINC000499369364    0.0600
     29 H29       -11.1969    2.1979   63.0230 H       1  ZINC000499369364    0.0600
     30 H30       -10.0132    0.8695   62.9736 H       1  ZINC000499369364    0.0600
     31 H31        -9.3454    3.8439   63.1278 H       1  ZINC000499369364    0.0800
     32 H32        -7.7036    2.3971   64.2940 H       1  ZINC000499369364    0.0600
     33 H33        -7.5704    1.3773   62.8412 H       1  ZINC000499369364    0.0600
     34 H34        -7.0139    3.0674   62.7961 H       1  ZINC000499369364    0.0500
     35 H35        -7.4735    4.0343   60.9852 H       1  ZINC000499369364    0.0600
     36 H36        -8.5754    4.0400   59.5873 H       1  ZINC000499369364    0.0600
     37 H37        -8.9962    4.9534   61.0560 H       1  ZINC000499369364    0.0700
     38 H38        -7.6328    1.4953   60.8042 H       1  ZINC000499369364    0.4000
     39 H39        -7.9782   -2.3793   60.6935 H       1  ZINC000499369364    0.1200
     40 H40        -9.0826   -1.3293   61.6443 H       1  ZINC000499369364    0.1300
     41 H41        -9.1489   -2.9912   57.8379 H       1  ZINC000499369364    0.1100
     42 H42       -10.7557   -2.2302   57.5919 H       1  ZINC000499369364    0.1200
     43 H43        -9.4303   -1.4209   55.6522 H       1  ZINC000499369364    0.1300
     44 H44       -10.9071   -0.5173   56.0655 H       1  ZINC000499369364    0.1300
     45 H45        -6.7268    0.0332   53.7622 H       1  ZINC000499369364    0.1600
     46 H46        -4.9996   -1.2783   52.4458 H       1  ZINC000499369364    0.1200
     47 H47        -6.3066   -1.8049   51.2560 H       1  ZINC000499369364    0.1200
     48 H48        -6.7631    0.6233   50.6823 H       1  ZINC000499369364    0.1100
     49 H49        -5.4562    1.1501   51.8722 H       1  ZINC000499369364    0.1200
@<TRIPOS>BOND
     1     1     2    1
     2     1    28    1
     3     1    29    1
     4     1    30    1
     5     2     3    1
     6     2     4    1
     7     2    31    1
     8     3    32    1
     9     3    33    1
    10     3    34    1
    11     4     5    1
    12     4     6    1
    13     4     7    1
    14     6    35    1
    15     6    36    1
    16     6    37    1
    17     7     8   am
    18     7    38    1
    19     8     9    2
    20     8    10    1
    21    10    11    1
    22    10    15    1
    23    10    12    1
    24    12    13    1
    25    12    39    1
    26    12    40    1
    27    13    14    1
    28    14    15    1
    29    14    41    1
    30    14    42    1
    31    15    16   am
    32    16    17    2
    33    16    18    1
    34    18    19    1
    35    18    43    1
    36    18    44    1
    37    19    20    1
    38    20    24    1
    39    20    21    2
    40    21    22    1
    41    22    23    2
    42    23    24    1
    43    24    25    1
    44    25    27    1
    45    25    26    1
    46    25    45    1
    47    26    27    1
    48    26    46    1
    49    26    47    1
    50    27    48    1
    51    27    49    1
@<TRIPOS>SUBSTRUCTURE
     1 ZINC000499369364        1 TEMP              0 ****  ****    0 ROOT


##########                                Name:    ZINC001083519372
##########                DOCK_Rotatable_Bonds:                   7
##########                         Heavy_Atoms:                  27
##########                    Molecular_Weight:             370.411
##########                DOCK_Rotatable_Bonds:                   7
##########                       Formal_Charge:           0.0399996
##########                     HBond_Acceptors:                   9
##########                        HBond_Donors:                   2
##########                         Heavy_Atoms:                  27
##########                          Grid_Score:          -30.811907
##########                     Grid_vdw_energy:          -26.240335
##########                      Grid_es_energy:           -4.571572
##########           Internal_energy_repulsive:           10.214956

@<TRIPOS>MOLECULE
ZINC001083519372
 49 52 1 0 0
SMALL
USER_CHARGES


@<TRIPOS>ATOM
      1 C1         -0.2171   -0.5504   61.6805 C.3     1  ZINC001083519372   -0.1500
      2 C2          1.0206    0.2656   62.0584 C.3     1  ZINC001083519372   -0.0100
      3 C3          1.3652    0.0182   63.5285 C.3     1  ZINC001083519372   -0.1500
      4 C4          2.1815   -0.1524   61.1932 C.2     1  ZINC001083519372   -0.0100
      5 C5          2.8390    0.6198   60.3124 C.2     1  ZINC001083519372   -0.0100
      6 C6          2.5490    2.0671   60.0087 C.3     1  ZINC001083519372    0.1300
      7 N7          2.4041    2.2434   58.5575 N.3     1  ZINC001083519372   -0.5000
      8 C8          1.0631    1.7991   58.0987 C.3     1  ZINC001083519372    0.0300
      9 C9          0.8976    2.5195   56.7371 C.3     1  ZINC001083519372    0.1500
     10 H10         1.4217    1.9794   55.9486 H       1  ZINC001083519372    0.1200
     11 N11        -0.5200    2.6755   56.4021 N.am    1  ZINC001083519372   -0.6900
     12 C12        -0.8830    3.0146   55.1493 C.2     1  ZINC001083519372    0.5600
     13 O13        -0.0340    3.1896   54.2965 O.2     1  ZINC001083519372   -0.5100
     14 C14        -2.3102    3.1734   54.8123 C.2     1  ZINC001083519372    0.1400
     15 C15        -3.2402    3.3775   55.7958 C.2     1  ZINC001083519372   -0.1500
     16 C16        -4.5885    3.5246   55.4436 C.2     1  ZINC001083519372    0.1800
     17 N17        -4.9574    3.4676   54.1864 N.2     1  ZINC001083519372   -0.4400
     18 C18        -4.0645    3.2690   53.2113 C.2     1  ZINC001083519372    0.2500
     19 C19        -4.1873    3.1686   51.8297 C.2     1  ZINC001083519372   -0.2500
     20 C20        -2.9211    2.9587   51.3092 C.2     1  ZINC001083519372    0.1000
     21 N21        -2.0515    2.9279   52.2955 N.2     1  ZINC001083519372   -0.3100
     22 N22        -2.7307    3.1244   53.5028 N.pl3   1  ZINC001083519372   -0.3100
     23 C23         1.5582    3.8941   56.9908 C.3     1  ZINC001083519372    0.0900
     24 H24         2.1229    4.2101   56.1136 H       1  ZINC001083519372    0.0800
     25 O25         0.5656    4.8686   57.3182 O.3     1  ZINC001083519372   -0.5600
     26 C26         2.5054    3.6710   58.1842 C.3     1  ZINC001083519372    0.0100
     27 N27         3.8026   -0.1314   59.7507 N.2     1  ZINC001083519372   -0.4800
     28 C28         3.7498   -1.3286   60.2611 C.2     1  ZINC001083519372    0.1700
     29 O29         2.7589   -1.3696   61.1618 O.3     1  ZINC001083519372   -0.2000
     30 H30        -0.4625   -0.3743   60.6331 H       1  ZINC001083519372    0.0600
     31 H31        -0.0137   -1.6105   61.8325 H       1  ZINC001083519372    0.0600
     32 H32        -1.0567   -0.2481   62.3062 H       1  ZINC001083519372    0.0700
     33 H33         0.8174    1.3255   61.9064 H       1  ZINC001083519372    0.1000
     34 H34         1.5685   -1.0418   63.6806 H       1  ZINC001083519372    0.0600
     35 H35         2.2469    0.5996   63.7978 H       1  ZINC001083519372    0.0600
     36 H36         0.5255    0.3205   64.1544 H       1  ZINC001083519372    0.0700
     37 H37         1.6252    2.3646   60.5049 H       1  ZINC001083519372    0.0900
     38 H38         3.3708    2.6857   60.3696 H       1  ZINC001083519372    0.0600
     39 H39         1.0406    0.7173   57.9668 H       1  ZINC001083519372    0.1000
     40 H40         0.2915    2.1184   58.7992 H       1  ZINC001083519372    0.0600
     41 H41        -1.1974    2.5348   57.0820 H       1  ZINC001083519372    0.4300
     42 H42        -2.9382    3.4244   56.8316 H       1  ZINC001083519372    0.1800
     43 H43        -5.3293    3.6857   56.2130 H       1  ZINC001083519372    0.1900
     44 H44        -5.1048    3.2409   51.2645 H       1  ZINC001083519372    0.1700
     45 H45        -2.6857    2.8394   50.2620 H       1  ZINC001083519372    0.2000
     46 H46         0.2330    4.8022   58.2238 H       1  ZINC001083519372    0.3900
     47 H47         2.1999    4.2966   59.0229 H       1  ZINC001083519372    0.0700
     48 H48         3.5294    3.9073   57.8949 H       1  ZINC001083519372    0.0900
     49 H49         4.4002   -2.1514   60.0036 H       1  ZINC001083519372    0.2500
@<TRIPOS>BOND
     1     1     2    1
     2     1    30    1
     3     1    31    1
     4     1    32    1
     5     2     3    1
     6     2     4    1
     7     2    33    1
     8     3    34    1
     9     3    35    1
    10     3    36    1
    11     4    29    1
    12     4     5    2
    13     5     6    1
    14     5    27    1
    15     6     7    1
    16     6    37    1
    17     6    38    1
    18     7    26    1
    19     7     8    1
    20     8     9    1
    21     8    39    1
    22     8    40    1
    23     9    10    1
    24     9    11    1
    25     9    23    1
    26    11    12   am
    27    11    41    1
    28    12    13    2
    29    12    14    1
    30    14    22    1
    31    14    15    2
    32    15    16    1
    33    15    42    1
    34    16    17    2
    35    16    43    1
    36    17    18    1
    37    18    22    1
    38    18    19    2
    39    19    20    1
    40    19    44    1
    41    20    21    2
    42    20    45    1
    43    21    22    1
    44    23    24    1
    45    23    25    1
    46    23    26    1
    47    25    46    1
    48    26    47    1
    49    26    48    1
    50    27    28    2
    51    28    29    1
    52    28    49    1
@<TRIPOS>SUBSTRUCTURE
     1 ZINC001083519372        1 TEMP              0 ****  ****    0 ROOT


##########                                Name:    ZINC000970996691
##########                DOCK_Rotatable_Bonds:                   7
##########                         Heavy_Atoms:                  24
##########                    Molecular_Weight:             334.462
##########                DOCK_Rotatable_Bonds:                   7
##########                       Formal_Charge:          -0.0199999
##########                     HBond_Acceptors:                   6
##########                        HBond_Donors:                   0
##########                         Heavy_Atoms:                  24
##########                          Grid_Score:          -30.799623
##########                     Grid_vdw_energy:          -30.670132
##########                      Grid_es_energy:           -0.129491
##########           Internal_energy_repulsive:           13.934627

@<TRIPOS>MOLECULE
ZINC000970996691
 54 56 1 0 0
SMALL
USER_CHARGES


@<TRIPOS>ATOM
      1 C1         -8.0841   -0.9026   66.6194 C.3     1  ZINC000970996691   -0.1500
      2 C2         -8.6007    0.5354   66.6952 C.3     1  ZINC000970996691   -0.1200
      3 C3         -8.1358    1.3101   65.4603 C.3     1  ZINC000970996691   -0.0300
      4 C4         -8.6625    0.6384   64.2184 C.2     1  ZINC000970996691    0.1800
      5 N5         -7.9885   -0.1387   63.4051 N.2     1  ZINC000970996691   -0.4700
      6 C6         -8.8596   -0.5030   62.4474 C.2     1  ZINC000970996691    0.1800
      7 C7         -8.5692   -1.4002   61.2720 C.3     1  ZINC000970996691    0.1500
      8 N8         -9.0890   -0.7828   60.0446 N.3     1  ZINC000970996691   -0.5200
      9 C9         -8.3478    0.4424   59.7169 C.3     1  ZINC000970996691    0.0200
     10 C10        -9.0582   -1.7323   58.9239 C.3     1  ZINC000970996691    0.0700
     11 H11        -8.0492   -2.1125   58.7644 H       1  ZINC000970996691    0.0600
     12 C12       -10.0608   -2.8942   59.1517 C.3     1  ZINC000970996691   -0.1300
     13 C13       -10.3973   -3.3470   57.7153 C.3     1  ZINC000970996691    0.1000
     14 N14       -10.0984   -2.2191   56.8208 N.am    1  ZINC000970996691   -0.6200
     15 C15       -10.2401   -2.2205   55.4805 C.2     1  ZINC000970996691    0.5300
     16 O16       -10.6456   -3.2135   54.9145 O.2     1  ZINC000970996691   -0.5300
     17 C17        -9.8943   -0.9881   54.6851 C.3     1  ZINC000970996691   -0.1000
     18 C18        -9.4324   -1.3975   53.2852 C.3     1  ZINC000970996691   -0.1100
     19 C19        -9.0815   -0.1462   52.4776 C.3     1  ZINC000970996691   -0.1200
     20 C20       -10.3156    0.7510   52.3653 C.3     1  ZINC000970996691   -0.1200
     21 C21       -10.7777    1.1605   53.7653 C.3     1  ZINC000970996691   -0.1200
     22 C22       -11.1286   -0.0908   54.5728 C.3     1  ZINC000970996691   -0.1000
     23 C23        -9.6184   -1.0854   57.6326 C.3     1  ZINC000970996691    0.1200
     24 N24        -9.9979    0.0606   62.7219 N.2     1  ZINC000970996691   -0.3800
     25 O25        -9.9075    0.7160   63.7386 O.3     1  ZINC000970996691    0.0800
     26 H26        -8.4742   -1.3821   65.7217 H       1  ZINC000970996691    0.0600
     27 H27        -6.9947   -0.8960   66.5836 H       1  ZINC000970996691    0.0600
     28 H28        -8.4153   -1.4545   67.4991 H       1  ZINC000970996691    0.0600
     29 H29        -9.6901    0.5288   66.7311 H       1  ZINC000970996691    0.0700
     30 H30        -8.2105    1.0149   67.5930 H       1  ZINC000970996691    0.0700
     31 H31        -8.5133    2.3314   65.5089 H       1  ZINC000970996691    0.1100
     32 H32        -7.0464    1.3263   65.4305 H       1  ZINC000970996691    0.1000
     33 H33        -7.4924   -1.5414   61.1799 H       1  ZINC000970996691    0.0700
     34 H34        -9.0506   -2.3663   61.4248 H       1  ZINC000970996691    0.1100
     35 H35        -7.2952    0.2015   59.5684 H       1  ZINC000970996691    0.0300
     36 H36        -8.7529    0.8791   58.8042 H       1  ZINC000970996691    0.0800
     37 H37        -8.4453    1.1558   60.5354 H       1  ZINC000970996691    0.0700
     38 H38        -9.5923   -3.7037   59.7114 H       1  ZINC000970996691    0.0800
     39 H39       -10.9549   -2.5374   59.6631 H       1  ZINC000970996691    0.0900
     40 H40        -9.7849   -4.2071   57.4447 H       1  ZINC000970996691    0.0700
     41 H41       -11.4541   -3.6051   57.6459 H       1  ZINC000970996691    0.0700
     42 H42        -9.0943   -0.4442   55.1872 H       1  ZINC000970996691    0.0900
     43 H43        -8.5531   -2.0367   53.3652 H       1  ZINC000970996691    0.0700
     44 H44       -10.2325   -1.9414   52.7830 H       1  ZINC000970996691    0.0700
     45 H45        -8.2814    0.3977   52.9797 H       1  ZINC000970996691    0.0600
     46 H46        -8.7523   -0.4379   51.4803 H       1  ZINC000970996691    0.0700
     47 H47       -10.0657    1.6425   51.7900 H       1  ZINC000970996691    0.0600
     48 H48       -11.1158    0.2071   51.8633 H       1  ZINC000970996691    0.0600
     49 H49        -9.9776    1.7044   54.2673 H       1  ZINC000970996691    0.0600
     50 H50       -11.6569    1.7997   53.6852 H       1  ZINC000970996691    0.0700
     51 H51       -11.9287   -0.6347   54.0707 H       1  ZINC000970996691    0.0800
     52 H52       -11.4577    0.2009   55.5702 H       1  ZINC000970996691    0.0600
     53 H53       -10.4433   -0.4143   57.8724 H       1  ZINC000970996691    0.0800
     54 H54        -8.8314   -0.5470   57.1045 H       1  ZINC000970996691    0.0800
@<TRIPOS>BOND
     1     1     2    1
     2     1    26    1
     3     1    27    1
     4     1    28    1
     5     2     3    1
     6     2    29    1
     7     2    30    1
     8     3     4    1
     9     3    31    1
    10     3    32    1
    11     4    25    1
    12     4     5    2
    13     5     6    1
    14     6     7    1
    15     6    24    2
    16     7     8    1
    17     7    33    1
    18     7    34    1
    19     8     9    1
    20     8    10    1
    21     9    35    1
    22     9    36    1
    23     9    37    1
    24    10    11    1
    25    10    23    1
    26    10    12    1
    27    12    13    1
    28    12    38    1
    29    12    39    1
    30    13    14    1
    31    13    40    1
    32    13    41    1
    33    14    15   am
    34    14    23    1
    35    15    16    2
    36    15    17    1
    37    17    22    1
    38    17    18    1
    39    17    42    1
    40    18    19    1
    41    18    43    1
    42    18    44    1
    43    19    20    1
    44    19    45    1
    45    19    46    1
    46    20    21    1
    47    20    47    1
    48    20    48    1
    49    21    22    1
    50    21    49    1
    51    21    50    1
    52    22    51    1
    53    22    52    1
    54    23    53    1
    55    23    54    1
    56    24    25    1
@<TRIPOS>SUBSTRUCTURE
     1 ZINC000970996691        1 TEMP              0 ****  ****    0 ROOT


##########                                Name:    ZINC000504243286
##########                DOCK_Rotatable_Bonds:                   7
##########                         Heavy_Atoms:                  29
##########                    Molecular_Weight:             408.337
##########                DOCK_Rotatable_Bonds:                   7
##########                       Formal_Charge:           0.0299994
##########                     HBond_Acceptors:                  11
##########                        HBond_Donors:                   3
##########                         Heavy_Atoms:                  29
##########                          Grid_Score:          -30.791689
##########                     Grid_vdw_energy:          -30.072561
##########                      Grid_es_energy:           -0.719128
##########           Internal_energy_repulsive:           11.582755

@<TRIPOS>MOLECULE
ZINC000504243286
 44 46 1 0 0
SMALL
USER_CHARGES


@<TRIPOS>ATOM
      1 O1         -2.2433    3.3688   50.1523 O.2     1  ZINC000504243286   -0.5200
      2 C2         -2.9709    2.4805   50.5431 C.2     1  ZINC000504243286    0.5200
      3 C3         -3.8717    2.7112   51.7290 C.3     1  ZINC000504243286   -0.1600
      4 C4         -5.0937    1.7962   51.6268 C.3     1  ZINC000504243286    0.1300
      5 N5         -6.0546    2.1459   52.6760 N.pl3   1  ZINC000504243286   -0.7200
      6 C6         -7.0370    1.2291   53.0570 C.ar    1  ZINC000504243286    0.3100
      7 C7         -7.1565    0.0184   52.3869 C.ar    1  ZINC000504243286   -0.1900
      8 C8         -8.1288   -0.8862   52.7665 C.ar    1  ZINC000504243286    0.0200
      9 C9         -8.9827   -0.5876   53.8123 C.ar    1  ZINC000504243286   -0.2400
     10 C10       -10.0419   -1.5773   54.2240 C.3     1  ZINC000504243286    0.5200
     11 F11        -9.5939   -2.8763   53.9611 F       1  ZINC000504243286   -0.1700
     12 F12       -10.3008   -1.4413   55.5921 F       1  ZINC000504243286   -0.1700
     13 F13       -11.2144   -1.3331   53.5010 F       1  ZINC000504243286   -0.1700
     14 C14        -8.8664    0.6170   54.4816 C.ar    1  ZINC000504243286    0.0400
     15 C15        -7.8931    1.5237   54.1107 C.ar    1  ZINC000504243286   -0.1200
     16 N16        -7.7695    2.8126   54.8276 N.pl3   1  ZINC000504243286    0.0400
     17 O17        -6.6684    3.2872   55.0417 O.2     1  ZINC000504243286   -0.1700
     18 O18        -8.7688    3.3988   55.2035 O.2     1  ZINC000504243286   -0.1400
     19 N19        -2.9779    1.2890   49.9132 N.am    1  ZINC000504243286   -0.6700
     20 C20        -2.1406    1.0746   48.8109 C.ar    1  ZINC000504243286    0.1200
     21 C21        -0.8201    0.6905   49.0022 C.ar    1  ZINC000504243286   -0.1000
     22 C22         0.0066    0.4782   47.9191 C.ar    1  ZINC000504243286   -0.1200
     23 C23        -0.4772    0.6482   46.6235 C.ar    1  ZINC000504243286    0.1300
     24 N24         0.1549    0.4968   45.3868 N.am    1  ZINC000504243286   -0.6600
     25 C25        -0.6699    0.7589   44.3590 C.2     1  ZINC000504243286    0.5300
     26 O26        -0.3904    0.7070   43.1798 O.2     1  ZINC000504243286   -0.5000
     27 C27        -2.0136    1.1306   44.9488 C.3     1  ZINC000504243286   -0.1200
     28 C28        -1.8001    1.0328   46.4419 C.ar    1  ZINC000504243286   -0.1200
     29 C29        -2.6293    1.2398   47.5200 C.ar    1  ZINC000504243286   -0.0600
     30 H30        -3.3276    2.4896   52.6471 H       1  ZINC000504243286    0.1100
     31 H31        -4.1968    3.7515   51.7414 H       1  ZINC000504243286    0.1100
     32 H32        -5.5608    1.9215   50.6500 H       1  ZINC000504243286    0.0800
     33 H33        -4.7823    0.7590   51.7504 H       1  ZINC000504243286    0.0900
     34 H34        -6.0085    3.0141   53.1061 H       1  ZINC000504243286    0.4100
     35 H35        -6.4901   -0.2153   51.5698 H       1  ZINC000504243286    0.1600
     36 H36        -8.2225   -1.8278   52.2457 H       1  ZINC000504243286    0.1600
     37 H37        -9.5349    0.8473   55.2981 H       1  ZINC000504243286    0.1600
     38 H38        -3.5628    0.5800   50.2232 H       1  ZINC000504243286    0.4200
     39 H39        -0.4386    0.5577   50.0038 H       1  ZINC000504243286    0.1400
     40 H40         1.0326    0.1795   48.0755 H       1  ZINC000504243286    0.1300
     41 H41         1.0824    0.2328   45.2822 H       1  ZINC000504243286    0.4100
     42 H42        -2.2856    2.1480   44.6679 H       1  ZINC000504243286    0.1300
     43 H43        -2.7803    0.4263   44.6258 H       1  ZINC000504243286    0.1300
     44 H44        -3.6568    1.5336   47.3638 H       1  ZINC000504243286    0.1500
@<TRIPOS>BOND
     1     1     2    2
     2     2     3    1
     3     2    19   am
     4     3     4    1
     5     3    30    1
     6     3    31    1
     7     4     5    1
     8     4    32    1
     9     4    33    1
    10     5     6    1
    11     5    34    1
    12     6    15   ar
    13     6     7   ar
    14     7     8   ar
    15     7    35    1
    16     8     9   ar
    17     8    36    1
    18     9    10    1
    19     9    14   ar
    20    10    11    1
    21    10    12    1
    22    10    13    1
    23    14    15   ar
    24    14    37    1
    25    15    16    1
    26    16    17    2
    27    16    18    2
    28    19    20    1
    29    19    38    1
    30    20    29   ar
    31    20    21   ar
    32    21    22   ar
    33    21    39    1
    34    22    23   ar
    35    22    40    1
    36    23    28   ar
    37    23    24    1
    38    24    25   am
    39    24    41    1
    40    25    26    2
    41    25    27    1
    42    27    28    1
    43    27    42    1
    44    27    43    1
    45    28    29   ar
    46    29    44    1
@<TRIPOS>SUBSTRUCTURE
     1 ZINC000504243286        1 TEMP              0 ****  ****    0 ROOT


##########                                Name:    ZINC000417533280
##########                DOCK_Rotatable_Bonds:                   9
##########                         Heavy_Atoms:                  26
##########                    Molecular_Weight:             367.439
##########                DOCK_Rotatable_Bonds:                   9
##########                       Formal_Charge:         -0.00999999
##########                     HBond_Acceptors:                   7
##########                        HBond_Donors:                   2
##########                         Heavy_Atoms:                  26
##########                          Grid_Score:          -30.766911
##########                     Grid_vdw_energy:          -30.501900
##########                      Grid_es_energy:           -0.265010
##########           Internal_energy_repulsive:           16.397913

@<TRIPOS>MOLECULE
ZINC000417533280
 53 54 1 0 0
SMALL
USER_CHARGES


@<TRIPOS>ATOM
      1 C1         -2.7287    1.7958   45.8707 C.3     1  ZINC000417533280   -0.1600
      2 C2         -1.6354    1.9922   46.9228 C.3     1  ZINC000417533280   -0.1200
      3 C3         -2.2597    2.5258   48.2136 C.3     1  ZINC000417533280   -0.1200
      4 C4         -3.1705    1.4561   48.8198 C.3     1  ZINC000417533280   -0.1300
      5 C5         -3.5942    1.8844   50.2261 C.3     1  ZINC000417533280    0.1200
      6 N6         -4.6173    0.9645   50.7293 N.am    1  ZINC000417533280   -0.7300
      7 C7         -5.3928    1.3237   51.7714 C.2     1  ZINC000417533280    0.5200
      8 O8         -5.2447    2.4092   52.2916 O.2     1  ZINC000417533280   -0.5400
      9 C9         -6.4441    0.3766   52.2901 C.3     1  ZINC000417533280   -0.1100
     10 C10        -7.4858    1.1606   53.0915 C.3     1  ZINC000417533280   -0.1300
     11 C11        -8.5336    0.1904   53.6461 C.3     1  ZINC000417533280    0.1300
     12 N12        -9.0909   -0.5905   52.5333 N.am    1  ZINC000417533280   -0.6200
     13 C13       -10.4224   -0.6448   52.3316 C.2     1  ZINC000417533280    0.7100
     14 O14       -10.8712   -1.2947   51.4071 O.2     1  ZINC000417533280   -0.5600
     15 N15       -11.2564    0.0210   53.1547 N.am    1  ZINC000417533280   -0.6800
     16 C16       -12.6400   -0.0355   52.9452 C.ar    1  ZINC000417533280    0.1900
     17 C17       -13.1794    0.4051   51.7444 C.ar    1  ZINC000417533280   -0.1100
     18 C18       -14.5446    0.3485   51.5382 C.ar    1  ZINC000417533280   -0.1100
     19 C19       -15.3753   -0.1468   52.5279 C.ar    1  ZINC000417533280    0.0500
     20 F20       -16.7097   -0.2015   52.3240 F       1  ZINC000417533280   -0.1300
     21 C21       -14.8393   -0.5878   53.7288 C.ar    1  ZINC000417533280    0.0900
     22 F22       -15.6516   -1.0712   54.6940 F       1  ZINC000417533280   -0.1200
     23 C23       -13.4730   -0.5375   53.9361 C.ar    1  ZINC000417533280   -0.1300
     24 C24       -12.8898   -1.0168   55.2404 C.3     1  ZINC000417533280   -0.1200
     25 C25        -8.1691   -1.3106   51.6442 C.3     1  ZINC000417533280    0.1100
     26 C26        -7.1253   -0.3235   51.1121 C.3     1  ZINC000417533280   -0.1200
     27 H27        -3.4648    1.0819   46.2405 H       1  ZINC000417533280    0.0500
     28 H28        -3.2165    2.7499   45.6710 H       1  ZINC000417533280    0.0500
     29 H29        -2.2839    1.4157   44.9510 H       1  ZINC000417533280    0.0500
     30 H30        -1.1476    1.0381   47.1224 H       1  ZINC000417533280    0.0600
     31 H31        -0.8994    2.7062   46.5530 H       1  ZINC000417533280    0.0600
     32 H32        -1.4705    2.7754   48.9227 H       1  ZINC000417533280    0.0700
     33 H33        -2.8450    3.4183   47.9922 H       1  ZINC000417533280    0.0700
     34 H34        -4.0552    1.3355   48.1946 H       1  ZINC000417533280    0.0700
     35 H35        -2.6325    0.5097   48.8748 H       1  ZINC000417533280    0.0700
     36 H36        -2.7289    1.8631   50.8887 H       1  ZINC000417533280    0.0700
     37 H37        -4.0002    2.8954   50.1911 H       1  ZINC000417533280    0.0700
     38 H38        -4.7366    0.0968   50.3124 H       1  ZINC000417533280    0.4000
     39 H39        -5.9761   -0.3681   52.9338 H       1  ZINC000417533280    0.1000
     40 H40        -6.9962    1.6779   53.9165 H       1  ZINC000417533280    0.0800
     41 H41        -7.9718    1.8889   52.4422 H       1  ZINC000417533280    0.0800
     42 H42        -8.0651   -0.4813   54.3654 H       1  ZINC000417533280    0.0700
     43 H43        -9.3304    0.7524   54.1332 H       1  ZINC000417533280    0.1000
     44 H44       -10.8983    0.5393   53.8923 H       1  ZINC000417533280    0.4100
     45 H45       -12.5321    0.7923   50.9714 H       1  ZINC000417533280    0.1700
     46 H46       -14.9637    0.6918   50.6039 H       1  ZINC000417533280    0.1500
     47 H47       -12.6553   -2.0786   55.1651 H       1  ZINC000417533280    0.0800
     48 H48       -11.9796   -0.4582   55.4585 H       1  ZINC000417533280    0.0700
     49 H49       -13.6128   -0.8603   56.0410 H       1  ZINC000417533280    0.0800
     50 H50        -7.6709   -2.1048   52.2002 H       1  ZINC000417533280    0.0800
     51 H51        -8.7255   -1.7389   50.8105 H       1  ZINC000417533280    0.0800
     52 H52        -7.6148    0.4186   50.4813 H       1  ZINC000417533280    0.0800
     53 H53        -6.3793   -0.8626   50.5284 H       1  ZINC000417533280    0.0900
@<TRIPOS>BOND
     1     1     2    1
     2     1    27    1
     3     1    28    1
     4     1    29    1
     5     2     3    1
     6     2    30    1
     7     2    31    1
     8     3     4    1
     9     3    32    1
    10     3    33    1
    11     4     5    1
    12     4    34    1
    13     4    35    1
    14     5     6    1
    15     5    36    1
    16     5    37    1
    17     6     7   am
    18     6    38    1
    19     7     8    2
    20     7     9    1
    21     9    26    1
    22     9    10    1
    23     9    39    1
    24    10    11    1
    25    10    40    1
    26    10    41    1
    27    11    12    1
    28    11    42    1
    29    11    43    1
    30    12    13   am
    31    12    25    1
    32    13    14    2
    33    13    15   am
    34    15    16    1
    35    15    44    1
    36    16    23   ar
    37    16    17   ar
    38    17    18   ar
    39    17    45    1
    40    18    19   ar
    41    18    46    1
    42    19    20    1
    43    19    21   ar
    44    21    22    1
    45    21    23   ar
    46    23    24    1
    47    24    47    1
    48    24    48    1
    49    24    49    1
    50    25    26    1
    51    25    50    1
    52    25    51    1
    53    26    52    1
    54    26    53    1
@<TRIPOS>SUBSTRUCTURE
     1 ZINC000417533280        1 TEMP              0 ****  ****    0 ROOT


##########                                Name:    ZINC001000186632
##########                DOCK_Rotatable_Bonds:                   7
##########                         Heavy_Atoms:                  23
##########                    Molecular_Weight:             342.379
##########                DOCK_Rotatable_Bonds:                   7
##########                       Formal_Charge:          -0.0100001
##########                     HBond_Acceptors:                  11
##########                        HBond_Donors:                   2
##########                         Heavy_Atoms:                  23
##########                          Grid_Score:          -30.765724
##########                     Grid_vdw_energy:          -30.058271
##########                      Grid_es_energy:           -0.707452
##########           Internal_energy_repulsive:            5.160208

@<TRIPOS>MOLECULE
ZINC001000186632
 41 43 1 0 0
SMALL
USER_CHARGES


@<TRIPOS>ATOM
      1 O1         -9.7737   -2.6785   54.1427 O.2     1  ZINC001000186632   -0.5200
      2 C2        -10.1264   -1.7192   54.7956 C.2     1  ZINC001000186632    0.5300
      3 C3         -9.8535   -0.3246   54.2937 C.3     1  ZINC001000186632   -0.0500
      4 C4         -8.6274   -0.3371   53.4175 C.2     1  ZINC001000186632    0.2400
      5 N5         -7.4022   -0.1290   53.8226 N.2     1  ZINC001000186632   -0.3000
      6 N6         -6.5775   -0.2314   52.6904 N.pl3   1  ZINC001000186632   -0.4800
      7 C7         -7.3896   -0.5020   51.6539 C.2     1  ZINC001000186632    0.2700
      8 N8         -8.6158   -0.5677   52.1053 N.2     1  ZINC001000186632   -0.5400
      9 N9        -10.7675   -1.9002   55.9672 N.am    1  ZINC001000186632   -0.7100
     10 C10       -11.0329   -3.2558   56.4551 C.3     1  ZINC001000186632    0.1100
     11 C11       -10.3295   -3.5849   57.7844 C.3     1  ZINC001000186632    0.1000
     12 N12       -11.5535   -3.0846   58.4400 N.am    1  ZINC001000186632   -0.6500
     13 C13       -11.8301   -2.5623   59.6513 C.2     1  ZINC001000186632    0.5100
     14 O14       -12.9637   -2.2268   59.9225 O.2     1  ZINC001000186632   -0.5100
     15 C15       -10.7311   -2.3954   60.6687 C.3     1  ZINC001000186632    0.1500
     16 N16       -10.1533   -1.0545   60.5479 N.am    1  ZINC001000186632   -0.9800
     17 C17       -10.8826    0.1824   60.2299 C.3     1  ZINC001000186632    0.0800
     18 C18       -10.1779    1.3927   60.8719 C.3     1  ZINC001000186632   -0.1300
     19 C19        -8.6703    1.1713   60.5566 C.3     1  ZINC001000186632   -0.6000
     20 S20        -8.5465   -0.6481   60.7531 S.o2    1  ZINC001000186632    2.5700
     21 O21        -8.2367   -1.0015   62.0941 O.2     1  ZINC001000186632   -0.9400
     22 O22        -7.8766   -1.2409   59.6490 O.2     1  ZINC001000186632   -0.9600
     23 C23       -12.3528   -3.3860   57.2366 C.3     1  ZINC001000186632    0.0900
     24 H24       -10.7087    0.0279   53.7169 H       1  ZINC001000186632    0.1300
     25 H25        -9.6877    0.3406   55.1411 H       1  ZINC001000186632    0.1200
     26 H26        -5.6136   -0.1271   52.6620 H       1  ZINC001000186632    0.4400
     27 H27        -7.0829   -0.6439   50.6281 H       1  ZINC001000186632    0.2200
     28 H28       -11.0531   -1.1329   56.4874 H       1  ZINC001000186632    0.4100
     29 H29       -10.9009   -4.0175   55.6866 H       1  ZINC001000186632    0.1200
     30 H30       -10.1536   -4.6498   57.9365 H       1  ZINC001000186632    0.1000
     31 H31        -9.4472   -2.9749   57.9774 H       1  ZINC001000186632    0.0900
     32 H32       -11.1405   -2.5256   61.6705 H       1  ZINC001000186632    0.1100
     33 H33        -9.9566   -3.1419   60.4928 H       1  ZINC001000186632    0.1100
     34 H34       -10.9148    0.3150   59.1485 H       1  ZINC001000186632    0.0800
     35 H35       -11.9000    0.1109   60.6144 H       1  ZINC001000186632    0.0900
     36 H36       -10.5291    2.3211   60.4217 H       1  ZINC001000186632    0.1100
     37 H37       -10.3444    1.4034   61.9490 H       1  ZINC001000186632    0.1000
     38 H38        -8.4321    1.4777   59.5380 H       1  ZINC001000186632    0.1400
     39 H39        -8.0373    1.6868   61.2789 H       1  ZINC001000186632    0.1400
     40 H40       -13.0857   -2.6171   56.9922 H       1  ZINC001000186632    0.0900
     41 H41       -12.7712   -4.3925   57.2278 H       1  ZINC001000186632    0.1100
@<TRIPOS>BOND
     1     1     2    2
     2     2     3    1
     3     2     9   am
     4     3     4    1
     5     3    24    1
     6     3    25    1
     7     4     8    1
     8     4     5    2
     9     5     6    1
    10     6     7    1
    11     6    26    1
    12     7     8    2
    13     7    27    1
    14     9    10    1
    15     9    28    1
    16    10    23    1
    17    10    11    1
    18    10    29    1
    19    11    12    1
    20    11    30    1
    21    11    31    1
    22    12    13   am
    23    12    23    1
    24    13    14    2
    25    13    15    1
    26    15    16    1
    27    15    32    1
    28    15    33    1
    29    16    20   am
    30    16    17    1
    31    17    18    1
    32    17    34    1
    33    17    35    1
    34    18    19    1
    35    18    36    1
    36    18    37    1
    37    19    20    1
    38    19    38    1
    39    19    39    1
    40    20    21    2
    41    20    22    2
    42    23    40    1
    43    23    41    1
@<TRIPOS>SUBSTRUCTURE
     1 ZINC001000186632        1 TEMP              0 ****  ****    0 ROOT


##########                                Name:    ZINC000285228948
##########                DOCK_Rotatable_Bonds:                   8
##########                         Heavy_Atoms:                  23
##########                    Molecular_Weight:             339.822
##########                DOCK_Rotatable_Bonds:                   8
##########                       Formal_Charge:           0.0299997
##########                     HBond_Acceptors:                   7
##########                        HBond_Donors:                   3
##########                         Heavy_Atoms:                  23
##########                          Grid_Score:          -30.764389
##########                     Grid_vdw_energy:          -27.071278
##########                      Grid_es_energy:           -3.693110
##########           Internal_energy_repulsive:           23.800592

@<TRIPOS>MOLECULE
ZINC000285228948
 45 46 1 0 0
SMALL
USER_CHARGES


@<TRIPOS>ATOM
      1 C1        -11.5658   -2.8859   59.7373 C.3     1  <0>        -0.1600
      2 C2        -10.9199   -1.5308   59.4412 C.3     1  <0>         0.1800
      3 H3        -11.6331   -0.7343   59.6532 H       1  <0>         0.1100
      4 C4        -10.5179   -1.4723   57.9900 C.ar    1  <0>        -0.0900
      5 C5        -10.1688   -2.6314   57.3224 C.ar    1  <0>        -0.1000
      6 C6         -9.8002   -2.5784   55.9915 C.ar    1  <0>        -0.1100
      7 C7         -9.7803   -1.3649   55.3273 C.ar    1  <0>        -0.0300
      8 Cl8        -9.3178   -1.2975   53.6554 Cl      1  <0>        -0.0700
      9 C9        -10.1298   -0.2051   55.9959 C.ar    1  <0>        -0.1100
     10 C10       -10.5038   -0.2602   57.3254 C.ar    1  <0>        -0.0900
     11 N11        -9.7335   -1.3609   60.2838 N.am    1  <0>        -0.6100
     12 C12        -8.4247   -1.8135   59.8059 C.3     1  <0>         0.0600
     13 C13        -9.8461   -0.7882   61.4986 C.2     1  <0>         0.5200
     14 O14       -10.9295   -0.4120   61.8936 O.2     1  <0>        -0.5200
     15 C15        -8.6262   -0.6150   62.3661 C.3     1  <0>         0.0300
     16 N16        -9.0403   -0.2346   63.7233 N.3     1  <0>        -0.4900
     17 C17        -8.9398    1.2343   63.9183 C.3     1  <0>         0.0400
     18 C18        -8.8870    1.3846   65.4595 C.3     1  <0>        -0.1400
     19 C19        -8.0357    0.1704   65.8963 C.3     1  <0>         0.1100
     20 O20        -6.6736    0.5607   66.0823 O.3     1  <0>        -0.5400
     21 C21        -8.5863   -0.4249   67.1665 C.2     1  <0>         0.5000
     22 N22        -9.2350    0.3577   68.0515 N.am    1  <0>        -0.8500
     23 O23        -8.4458   -1.6082   67.3923 O.2     1  <0>        -0.5200
     24 C24        -8.1493   -0.8380   64.7379 C.3     1  <0>         0.0600
     25 H25       -12.4484   -3.0123   59.1104 H       1  <0>         0.0700
     26 H26       -10.8525   -3.6824   59.5254 H       1  <0>         0.0600
     27 H27       -11.8565   -2.9283   60.7869 H       1  <0>         0.0700
     28 H28       -10.1840   -3.5785   57.8412 H       1  <0>         0.1400
     29 H29        -9.5271   -3.4840   55.4701 H       1  <0>         0.1300
     30 H30       -10.1142    0.7425   55.4781 H       1  <0>         0.1400
     31 H31       -10.7769    0.6450   57.8473 H       1  <0>         0.1300
     32 H32        -7.9521   -1.0167   59.2316 H       1  <0>         0.0600
     33 H33        -7.7953   -2.0695   60.6582 H       1  <0>         0.0800
     34 H34        -8.5528   -2.6912   59.1724 H       1  <0>         0.0800
     35 H35        -8.0717   -1.5527   62.4048 H       1  <0>         0.1100
     36 H36        -7.9908    0.1657   61.9479 H       1  <0>         0.0700
     37 H37        -8.0284    1.6216   63.4627 H       1  <0>         0.0400
     38 H38        -9.8176    1.7373   63.5125 H       1  <0>         0.1200
     39 H39        -8.3995    2.3183   65.7396 H       1  <0>         0.0900
     40 H40        -9.8881    1.3276   65.8871 H       1  <0>         0.0900
     41 H41        -6.0949   -0.1574   66.3728 H       1  <0>         0.3800
     42 H42        -9.5885   -0.0251   68.8696 H       1  <0>         0.4000
     43 H43        -9.3484    1.3039   67.8702 H       1  <0>         0.4100
     44 H44        -8.5778   -1.7726   65.0999 H       1  <0>         0.1100
     45 H45        -7.1650   -1.0203   64.3065 H       1  <0>         0.0700
@<TRIPOS>BOND
     1     1     2    1
     2     1    25    1
     3     1    26    1
     4     1    27    1
     5     2     3    1
     6     2     4    1
     7     2    11    1
     8     4    10   ar
     9     4     5   ar
    10     5     6   ar
    11     5    28    1
    12     6     7   ar
    13     6    29    1
    14     7     8    1
    15     7     9   ar
    16     9    10   ar
    17     9    30    1
    18    10    31    1
    19    11    12    1
    20    11    13   am
    21    12    32    1
    22    12    33    1
    23    12    34    1
    24    13    14    2
    25    13    15    1
    26    15    16    1
    27    15    35    1
    28    15    36    1
    29    16    24    1
    30    16    17    1
    31    17    18    1
    32    17    37    1
    33    17    38    1
    34    18    19    1
    35    18    39    1
    36    18    40    1
    37    19    20    1
    38    19    21    1
    39    19    24    1
    40    20    41    1
    41    21    22   am
    42    21    23    2
    43    22    42    1
    44    22    43    1
    45    24    44    1
    46    24    45    1
@<TRIPOS>SUBSTRUCTURE
     1 <0>         1 TEMP              0 ****  ****    0 ROOT


##########                                Name:    ZINC000330515179
##########                DOCK_Rotatable_Bonds:                   4
##########                         Heavy_Atoms:                  21
##########                    Molecular_Weight:             378.287
##########                DOCK_Rotatable_Bonds:                   4
##########                       Formal_Charge:           0.0200002
##########                     HBond_Acceptors:                   6
##########                        HBond_Donors:                   0
##########                         Heavy_Atoms:                  21
##########                          Grid_Score:          -30.745131
##########                     Grid_vdw_energy:          -30.776606
##########                      Grid_es_energy:            0.031475
##########           Internal_energy_repulsive:            9.566571

@<TRIPOS>MOLECULE
ZINC000330515179
 41 42 1 0 0
SMALL
USER_CHARGES


@<TRIPOS>ATOM
      1 C1         -4.5637    1.7355   51.0303 C.3     1  ZINC000330515179    0.0300
      2 O2         -3.6964    1.2670   49.9956 O.3     1  ZINC000330515179   -0.3800
      3 C3         -2.6317    2.1658   49.6785 C.3     1  ZINC000330515179    0.0700
      4 C4         -1.8328    1.6131   48.4965 C.3     1  ZINC000330515179    0.0800
      5 H5         -1.0277    2.3040   48.2462 H       1  ZINC000330515179    0.0800
      6 C6         -2.7586    1.4458   47.2861 C.3     1  ZINC000330515179    0.0900
      7 N7         -2.0166    0.7423   46.2279 N.am    1  ZINC000330515179   -1.0000
      8 S8         -1.9673    1.3356   44.6826 S.o2    1  ZINC000330515179    2.6900
      9 O9         -2.3939    0.2790   43.8335 O.2     1  ZINC000330515179   -0.9400
     10 O10        -2.6016    2.6066   44.7204 O.2     1  ZINC000330515179   -0.9500
     11 C11        -0.2754    1.6351   44.2926 C.ar    1  ZINC000330515179   -0.6700
     12 C12         0.3800    0.8205   43.3882 C.ar    1  ZINC000330515179   -0.0100
     13 C13         1.7071    1.0554   43.0816 C.ar    1  ZINC000330515179   -0.1100
     14 C14         2.3795    2.1058   43.6799 C.ar    1  ZINC000330515179   -0.0400
     15 Br15        4.1950    2.4281   43.2604 Br      1  ZINC000330515179   -0.0300
     16 C16         1.7234    2.9207   44.5847 C.ar    1  ZINC000330515179   -0.1100
     17 C17         0.3947    2.6883   44.8867 C.ar    1  ZINC000330515179   -0.0100
     18 C18        -1.3200   -0.5043   46.5833 C.3     1  ZINC000330515179    0.1000
     19 C19        -0.4643   -0.2420   47.8279 C.3     1  ZINC000330515179    0.1000
     20 C20         0.1189   -1.5625   48.3348 C.3     1  ZINC000330515179   -0.1400
     21 C21         0.6742    0.7165   47.4725 C.3     1  ZINC000330515179   -0.1800
     22 O22        -1.2798    0.3421   48.8465 O.3     1  ZINC000330515179   -0.3500
     23 H23        -5.3447    0.9970   51.2118 H       1  ZINC000330515179    0.0900
     24 H24        -3.9895    1.8890   51.9440 H       1  ZINC000330515179    0.0400
     25 H25        -5.0185    2.6776   50.7243 H       1  ZINC000330515179    0.0400
     26 H26        -3.0445    3.1394   49.4144 H       1  ZINC000330515179    0.0600
     27 H27        -1.9759    2.2715   50.5426 H       1  ZINC000330515179    0.0700
     28 H28        -3.6337    0.8619   47.5713 H       1  ZINC000330515179    0.0900
     29 H29        -3.0721    2.4255   46.9255 H       1  ZINC000330515179    0.1000
     30 H30        -0.1450    0.0001   42.9215 H       1  ZINC000330515179    0.1500
     31 H31         2.2191    0.4187   42.3754 H       1  ZINC000330515179    0.1500
     32 H32         2.2478    3.7410   45.0520 H       1  ZINC000330515179    0.1500
     33 H33        -0.1177    3.3244   45.5932 H       1  ZINC000330515179    0.1500
     34 H34        -2.0502   -1.2845   46.7977 H       1  ZINC000330515179    0.0900
     35 H35        -0.6807   -0.8159   45.7573 H       1  ZINC000330515179    0.1000
     36 H36         0.7376   -2.0090   47.5564 H       1  ZINC000330515179    0.0800
     37 H37         0.7272   -1.3752   49.2196 H       1  ZINC000330515179    0.0700
     38 H38        -0.6928   -2.2442   48.5894 H       1  ZINC000330515179    0.0700
     39 H39         0.2581    1.6577   47.1132 H       1  ZINC000330515179    0.0600
     40 H40         1.2822    0.9025   48.3579 H       1  ZINC000330515179    0.0700
     41 H41         1.2935    0.2720   46.6934 H       1  ZINC000330515179    0.0700
@<TRIPOS>BOND
     1     1     2    1
     2     1    23    1
     3     1    24    1
     4     1    25    1
     5     2     3    1
     6     3     4    1
     7     3    26    1
     8     3    27    1
     9     4     5    1
    10     4    22    1
    11     4     6    1
    12     6     7    1
    13     6    28    1
    14     6    29    1
    15     7     8   am
    16     7    18    1
    17     8     9    2
    18     8    10    2
    19     8    11    1
    20    11    17   ar
    21    11    12   ar
    22    12    13   ar
    23    12    30    1
    24    13    14   ar
    25    13    31    1
    26    14    15    1
    27    14    16   ar
    28    16    17   ar
    29    16    32    1
    30    17    33    1
    31    18    19    1
    32    18    34    1
    33    18    35    1
    34    19    20    1
    35    19    21    1
    36    19    22    1
    37    20    36    1
    38    20    37    1
    39    20    38    1
    40    21    39    1
    41    21    40    1
    42    21    41    1
@<TRIPOS>SUBSTRUCTURE
     1 ZINC000330515179        1 TEMP              0 ****  ****    0 ROOT


##########                                Name:    ZINC000004313955
##########                DOCK_Rotatable_Bonds:                   6
##########                         Heavy_Atoms:                  26
##########                    Molecular_Weight:             414.358
##########                DOCK_Rotatable_Bonds:                   6
##########                       Formal_Charge:           0.0299997
##########                     HBond_Acceptors:                   9
##########                        HBond_Donors:                   2
##########                         Heavy_Atoms:                  26
##########                          Grid_Score:          -30.740154
##########                     Grid_vdw_energy:          -27.454828
##########                      Grid_es_energy:           -3.285326
##########           Internal_energy_repulsive:           20.597996

@<TRIPOS>MOLECULE
ZINC000004313955
 47 49 1 0 0
SMALL
USER_CHARGES


@<TRIPOS>ATOM
      1 C1         -4.1377    3.4706   64.9321 C.3     1  ZINC000004313955   -0.1500
      2 C2         -5.2414    2.8619   65.7994 C.3     1  ZINC000004313955   -0.1100
      3 H3         -6.0730    3.5624   65.8747 H       1  ZINC000004313955    0.0800
      4 C4         -4.6905    2.5709   67.1973 C.3     1  ZINC000004313955   -0.1100
      5 C5         -5.8023    1.9924   68.0754 C.3     1  ZINC000004313955   -0.1100
      6 H6         -5.4153    1.8073   69.0775 H       1  ZINC000004313955    0.0900
      7 C7         -6.9624    2.9871   68.1517 C.3     1  ZINC000004313955   -0.1500
      8 C8         -6.2956    0.6761   67.4666 C.3     1  ZINC000004313955    0.1200
      9 N9         -6.6923    0.9191   66.0729 N.am    1  ZINC000004313955   -0.6000
     10 C10        -7.9172    0.5655   65.6359 C.2     1  ZINC000004313955    0.5400
     11 O11        -8.7035    0.0400   66.3952 O.2     1  ZINC000004313955   -0.5300
     12 C12        -8.3097    0.8229   64.2039 C.3     1  ZINC000004313955   -0.1400
     13 S13        -7.9106   -0.6285   63.1987 S.3     1  ZINC000004313955    0.0800
     14 C14        -8.4954   -0.0833   61.6286 C.2     1  ZINC000004313955    0.1100
     15 N15        -9.2288    0.9823   61.3969 N.2     1  ZINC000004313955   -0.2800
     16 N16        -9.4761    1.0831   60.1398 N.2     1  ZINC000004313955   -0.2400
     17 C17        -8.9158    0.0884   59.4916 C.2     1  ZINC000004313955    0.2500
     18 C18        -8.9686   -0.1508   58.0338 C.ar    1  ZINC000004313955   -0.0100
     19 C19        -8.0371    0.4558   57.1901 C.ar    1  ZINC000004313955   -0.0700
     20 C20        -8.0913    0.2289   55.8305 C.ar    1  ZINC000004313955   -0.1100
     21 C21        -9.0676   -0.5984   55.3017 C.ar    1  ZINC000004313955   -0.0100
     22 Cl22       -9.1289   -0.8780   53.5894 Cl      1  ZINC000004313955   -0.0500
     23 C23        -9.9949   -1.2041   56.1328 C.ar    1  ZINC000004313955   -0.1100
     24 C24        -9.9477   -0.9896   57.4956 C.ar    1  ZINC000004313955    0.0100
     25 Cl25      -11.1107   -1.7493   58.5367 Cl      1  ZINC000004313955   -0.0100
     26 N26        -8.2660   -0.6863   60.4245 N.pl3   1  ZINC000004313955   -0.3000
     27 N27        -7.5477   -1.8254   60.1954 N.3     1  ZINC000004313955   -0.5800
     28 C28        -5.7289    1.5559   65.1644 C.3     1  ZINC000004313955    0.1100
     29 H29        -4.5302    3.6766   63.9362 H       1  ZINC000004313955    0.0600
     30 H30        -3.7903    4.3992   65.3849 H       1  ZINC000004313955    0.0600
     31 H31        -3.3063    2.7697   64.8571 H       1  ZINC000004313955    0.0600
     32 H32        -3.8746    1.8519   67.1237 H       1  ZINC000004313955    0.0700
     33 H33        -4.3206    3.4951   67.6414 H       1  ZINC000004313955    0.0700
     34 H34        -7.3498    3.1710   67.1496 H       1  ZINC000004313955    0.0600
     35 H35        -7.7540    2.5747   68.7773 H       1  ZINC000004313955    0.0600
     36 H36        -6.6099    3.9242   68.5826 H       1  ZINC000004313955    0.0600
     37 H37        -5.4946   -0.0625   67.4952 H       1  ZINC000004313955    0.0700
     38 H38        -7.1529    0.3107   68.0321 H       1  ZINC000004313955    0.1000
     39 H39        -9.3807    1.0186   64.1503 H       1  ZINC000004313955    0.1300
     40 H40        -7.7631    1.6873   63.8271 H       1  ZINC000004313955    0.1300
     41 H41        -7.2753    1.1019   57.6009 H       1  ZINC000004313955    0.1600
     42 H42        -7.3707    0.6980   55.1769 H       1  ZINC000004313955    0.1500
     43 H43       -10.7540   -1.8483   55.7145 H       1  ZINC000004313955    0.1500
     44 H44        -6.8558   -1.9676   60.9158 H       1  ZINC000004313955    0.3700
     45 H45        -8.1560   -2.6265   60.1152 H       1  ZINC000004313955    0.3800
     46 H46        -6.2123    1.7701   64.2112 H       1  ZINC000004313955    0.0900
     47 H47        -4.8814    0.8892   65.0049 H       1  ZINC000004313955    0.0800
@<TRIPOS>BOND
     1     1     2    1
     2     1    29    1
     3     1    30    1
     4     1    31    1
     5     2     3    1
     6     2    28    1
     7     2     4    1
     8     4     5    1
     9     4    32    1
    10     4    33    1
    11     5     6    1
    12     5     7    1
    13     5     8    1
    14     7    34    1
    15     7    35    1
    16     7    36    1
    17     8     9    1
    18     8    37    1
    19     8    38    1
    20     9    10   am
    21     9    28    1
    22    10    11    2
    23    10    12    1
    24    12    13    1
    25    12    39    1
    26    12    40    1
    27    13    14    1
    28    14    26    1
    29    14    15    2
    30    15    16    1
    31    16    17    2
    32    17    18    1
    33    17    26    1
    34    18    24   ar
    35    18    19   ar
    36    19    20   ar
    37    19    41    1
    38    20    21   ar
    39    20    42    1
    40    21    22    1
    41    21    23   ar
    42    23    24   ar
    43    23    43    1
    44    24    25    1
    45    26    27    1
    46    27    44    1
    47    27    45    1
    48    28    46    1
    49    28    47    1
@<TRIPOS>SUBSTRUCTURE
     1 ZINC000004313955        1 TEMP              0 ****  ****    0 ROOT


##########                                Name:    ZINC001105793963
##########                DOCK_Rotatable_Bonds:                   9
##########                         Heavy_Atoms:                  24
##########                    Molecular_Weight:             337.422
##########                DOCK_Rotatable_Bonds:                   9
##########                       Formal_Charge:          -0.0100003
##########                     HBond_Acceptors:                   8
##########                        HBond_Donors:                   2
##########                         Heavy_Atoms:                  24
##########                          Grid_Score:          -30.707678
##########                     Grid_vdw_energy:          -30.095478
##########                      Grid_es_energy:           -0.612199
##########           Internal_energy_repulsive:           10.472395

@<TRIPOS>MOLECULE
ZINC001105793963
 51 52 1 0 0
SMALL
USER_CHARGES


@<TRIPOS>ATOM
      1 C1         -8.3809    1.1369   63.3733 C.3     1  ZINC001105793963   -0.1500
      2 C2         -8.2236   -0.3755   63.2027 C.3     1  ZINC001105793963   -0.0300
      3 C3         -8.3853   -0.7366   61.7486 C.2     1  ZINC001105793963    0.1800
      4 N4         -9.1166   -0.1032   60.8635 N.2     1  ZINC001105793963   -0.4800
      5 C5         -8.9560   -0.7785   59.7114 C.2     1  ZINC001105793963    0.1700
      6 C6         -9.5930   -0.4464   58.3867 C.3     1  ZINC001105793963    0.1500
      7 N7         -8.7069    0.4458   57.6271 N.3     1  ZINC001105793963   -0.6900
      8 C8         -9.4334    1.1012   56.5313 C.3     1  ZINC001105793963    0.0700
      9 C9         -9.2672    0.2838   55.2487 C.3     1  ZINC001105793963   -0.1000
     10 H10        -9.0836   -0.7635   55.4888 H       1  ZINC001105793963    0.1000
     11 C11        -8.1105    0.8502   54.3973 C.3     1  ZINC001105793963    0.1100
     12 N12        -8.5727    0.7080   52.9969 N.am    1  ZINC001105793963   -0.6200
     13 C13        -7.8485    0.3432   51.9204 C.2     1  ZINC001105793963    0.5300
     14 O14        -8.3755    0.2737   50.8303 O.2     1  ZINC001105793963   -0.5300
     15 C15        -6.3839    0.0218   52.0713 C.3     1  ZINC001105793963    0.1300
     16 H16        -6.0838    0.1723   53.1082 H       1  ZINC001105793963    0.1100
     17 C17        -6.1382   -1.4356   51.6755 C.3     1  ZINC001105793963   -0.1600
     18 N18        -5.5987    0.9026   51.2029 N.am    1  ZINC001105793963   -0.7200
     19 C19        -5.1145    2.0651   51.6830 C.2     1  ZINC001105793963    0.5200
     20 C20        -4.3083    2.9720   50.7893 C.3     1  ZINC001105793963   -0.1700
     21 O21        -5.3275    2.3814   52.8342 O.2     1  ZINC001105793963   -0.5500
     22 C22       -10.0114    1.0578   53.0484 C.3     1  ZINC001105793963    0.1000
     23 C23       -10.5217    0.4184   54.3606 C.3     1  ZINC001105793963   -0.1000
     24 H24       -11.2557    1.0676   54.8380 H       1  ZINC001105793963    0.0900
     25 C25       -11.1315   -0.9566   54.0803 C.3     1  ZINC001105793963   -0.1500
     26 N26        -8.1502   -1.7696   59.9503 N.2     1  ZINC001105793963   -0.3700
     27 O27        -7.8063   -1.7599   61.1135 O.3     1  ZINC001105793963    0.0800
     28 H28        -7.6202    1.6499   62.7849 H       1  ZINC001105793963    0.0600
     29 H29        -9.3705    1.4400   63.0314 H       1  ZINC001105793963    0.0600
     30 H30        -8.2641    1.3980   64.4251 H       1  ZINC001105793963    0.0800
     31 H31        -7.2340   -0.6786   63.5447 H       1  ZINC001105793963    0.1100
     32 H32        -8.9843   -0.8885   63.7912 H       1  ZINC001105793963    0.1000
     33 H33        -9.7559   -1.3641   57.8216 H       1  ZINC001105793963    0.1000
     34 H34       -10.5486    0.0496   58.5572 H       1  ZINC001105793963    0.0700
     35 H35        -8.2745    1.1272   58.2327 H       1  ZINC001105793963    0.3500
     36 H36       -10.4912    1.1678   56.7853 H       1  ZINC001105793963    0.0800
     37 H37        -9.0327    2.1033   56.3780 H       1  ZINC001105793963    0.0400
     38 H38        -7.9410    1.8999   54.6369 H       1  ZINC001105793963    0.0700
     39 H39        -7.2013    0.2710   54.5581 H       1  ZINC001105793963    0.0900
     40 H40        -5.0789   -1.6681   51.7846 H       1  ZINC001105793963    0.0800
     41 H41        -6.7225   -2.0909   52.3215 H       1  ZINC001105793963    0.0800
     42 H42        -6.4383   -1.5860   50.6385 H       1  ZINC001105793963    0.0600
     43 H43        -5.4273    0.6490   50.2825 H       1  ZINC001105793963    0.4100
     44 H44        -4.2228    2.5241   49.7992 H       1  ZINC001105793963    0.0800
     45 H45        -4.8056    3.9386   50.7090 H       1  ZINC001105793963    0.1000
     46 H46        -3.3135    3.1091   51.2131 H       1  ZINC001105793963    0.1000
     47 H47       -10.1386    2.1400   53.0773 H       1  ZINC001105793963    0.0800
     48 H48       -10.5361    0.6352   52.1917 H       1  ZINC001105793963    0.0900
     49 H49       -10.3830   -1.5980   53.6151 H       1  ZINC001105793963    0.0600
     50 H50       -11.4628   -1.4049   55.0169 H       1  ZINC001105793963    0.0600
     51 H51       -11.9831   -0.8462   53.4090 H       1  ZINC001105793963    0.0600
@<TRIPOS>BOND
     1     1     2    1
     2     1    28    1
     3     1    29    1
     4     1    30    1
     5     2     3    1
     6     2    31    1
     7     2    32    1
     8     3    27    1
     9     3     4    2
    10     4     5    1
    11     5     6    1
    12     5    26    2
    13     6     7    1
    14     6    33    1
    15     6    34    1
    16     7     8    1
    17     7    35    1
    18     8     9    1
    19     8    36    1
    20     8    37    1
    21     9    10    1
    22     9    23    1
    23     9    11    1
    24    11    12    1
    25    11    38    1
    26    11    39    1
    27    12    13   am
    28    12    22    1
    29    13    14    2
    30    13    15    1
    31    15    16    1
    32    15    17    1
    33    15    18    1
    34    17    40    1
    35    17    41    1
    36    17    42    1
    37    18    19   am
    38    18    43    1
    39    19    20    1
    40    19    21    2
    41    20    44    1
    42    20    45    1
    43    20    46    1
    44    22    23    1
    45    22    47    1
    46    22    48    1
    47    23    24    1
    48    23    25    1
    49    25    49    1
    50    25    50    1
    51    25    51    1
    52    26    27    1
@<TRIPOS>SUBSTRUCTURE
     1 ZINC001105793963        1 TEMP              0 ****  ****    0 ROOT


##########                                Name:    ZINC000590699876
##########                DOCK_Rotatable_Bonds:                   9
##########                         Heavy_Atoms:                  30
##########                    Molecular_Weight:              421.54
##########                DOCK_Rotatable_Bonds:                   9
##########                       Formal_Charge:          -0.0300004
##########                     HBond_Acceptors:                   9
##########                        HBond_Donors:                   1
##########                         Heavy_Atoms:                  30
##########                          Grid_Score:          -30.695555
##########                     Grid_vdw_energy:          -30.372997
##########                      Grid_es_energy:           -0.322558
##########           Internal_energy_repulsive:          100.522026

@<TRIPOS>MOLECULE
ZINC000590699876
 65 67 1 0 0
SMALL
USER_CHARGES


@<TRIPOS>ATOM
      1 C1         -8.9743    0.6855   51.9486 C.3     1  ZINC000590699876   -0.1700
      2 C2         -9.8728   -0.2767   52.6820 C.2     1  ZINC000590699876    0.5100
      3 O3        -10.7885   -0.8164   52.0981 O.2     1  ZINC000590699876   -0.5500
      4 N4         -9.6587   -0.5374   53.9868 N.am    1  ZINC000590699876   -0.7200
      5 C5        -10.5333   -1.4714   54.7003 C.3     1  ZINC000590699876    0.1100
      6 C6        -10.5487   -1.1247   56.1668 C.2     1  ZINC000590699876    0.5300
      7 O7         -9.6735   -0.4273   56.6343 O.2     1  ZINC000590699876   -0.5200
      8 N8        -11.5350   -1.5897   56.9588 N.am    1  ZINC000590699876   -0.6000
      9 C9        -12.6559   -2.4431   56.5241 C.3     1  ZINC000590699876    0.1000
     10 C10       -13.1096   -3.1853   57.8059 C.3     1  ZINC000590699876   -0.1300
     11 C11       -12.9274   -2.0846   58.8841 C.3     1  ZINC000590699876   -0.1300
     12 C12       -11.6680   -1.3351   58.4007 C.3     1  ZINC000590699876    0.1200
     13 H13       -11.7840   -0.2653   58.5741 H       1  ZINC000590699876    0.1000
     14 C14       -10.4548   -1.8446   59.1353 C.2     1  ZINC000590699876    0.5100
     15 O15        -9.6861   -2.6033   58.5836 O.2     1  ZINC000590699876   -0.5200
     16 N16       -10.2240   -1.4571   60.4053 N.am    1  ZINC000590699876   -0.6100
     17 C17        -9.0419   -1.9362   61.1378 C.3     1  ZINC000590699876    0.1000
     18 C18        -8.3130   -0.7256   61.7306 C.3     1  ZINC000590699876    0.0400
     19 N19        -9.2575    0.0688   62.5273 N.3     1  ZINC000590699876   -0.5200
     20 C20        -8.5629    1.1413   63.2521 C.3     1  ZINC000590699876    0.0400
     21 C21        -8.3326    0.7158   64.6792 C.2     1  ZINC000590699876    0.5200
     22 O22        -8.6453   -0.4000   65.0373 O.2     1  ZINC000590699876   -0.5100
     23 N23        -7.7790    1.5750   65.5576 N.am    1  ZINC000590699876   -0.6100
     24 C24        -7.3948    2.9299   65.1388 C.3     1  ZINC000590699876    0.1100
     25 C25        -5.9264    3.1623   65.5081 C.3     1  ZINC000590699876   -0.1400
     26 C26        -5.7300    2.8865   67.0006 C.3     1  ZINC000590699876   -0.1200
     27 C27        -6.0786    1.4270   67.3015 C.3     1  ZINC000590699876   -0.1300
     28 C28        -7.5539    1.1768   66.9539 C.3     1  ZINC000590699876    0.1400
     29 H29        -8.1900    1.7659   67.6146 H       1  ZINC000590699876    0.0700
     30 C30        -7.8758   -0.3094   67.1229 C.3     1  ZINC000590699876   -0.1400
     31 C31       -10.3356    0.6117   61.6902 C.3     1  ZINC000590699876    0.0400
     32 C32       -11.1443   -0.5391   61.0936 C.3     1  ZINC000590699876    0.1200
     33 H33        -9.2999    0.7682   50.9117 H       1  ZINC000590699876    0.1000
     34 H34        -9.0249    1.6647   52.4245 H       1  ZINC000590699876    0.0900
     35 H35        -7.9480    0.3194   51.9790 H       1  ZINC000590699876    0.0900
     36 H36        -8.9256   -0.1067   54.4536 H       1  ZINC000590699876    0.4100
     37 H37       -11.5445   -1.4006   54.2996 H       1  ZINC000590699876    0.1000
     38 H38       -10.1616   -2.4879   54.5711 H       1  ZINC000590699876    0.1000
     39 H39       -13.4685   -1.8314   56.1322 H       1  ZINC000590699876    0.0800
     40 H40       -12.3198   -3.1563   55.7715 H       1  ZINC000590699876    0.0800
     41 H41       -14.1532   -3.4907   57.7319 H       1  ZINC000590699876    0.0900
     42 H42       -12.4669   -4.0419   58.0095 H       1  ZINC000590699876    0.0800
     43 H43       -13.7912   -1.4202   58.9068 H       1  ZINC000590699876    0.1000
     44 H44       -12.7560   -2.5295   59.8643 H       1  ZINC000590699876    0.0900
     45 H45        -9.3544   -2.6045   61.9401 H       1  ZINC000590699876    0.0800
     46 H46        -8.3775   -2.4653   60.4547 H       1  ZINC000590699876    0.0900
     47 H47        -7.4978   -1.0682   62.3680 H       1  ZINC000590699876    0.0900
     48 H48        -7.9114   -0.1120   60.9241 H       1  ZINC000590699876    0.0400
     49 H49        -7.6044    1.3416   62.7734 H       1  ZINC000590699876    0.1000
     50 H50        -9.1727    2.0447   63.2361 H       1  ZINC000590699876    0.0600
     51 H51        -7.5204    3.0284   64.0606 H       1  ZINC000590699876    0.0800
     52 H52        -8.0204    3.6616   65.6500 H       1  ZINC000590699876    0.0700
     53 H53        -5.2944    2.4900   64.9277 H       1  ZINC000590699876    0.0700
     54 H54        -5.6556    4.1955   65.2904 H       1  ZINC000590699876    0.0800
     55 H55        -4.6911    3.0749   67.2712 H       1  ZINC000590699876    0.0700
     56 H56        -6.3804    3.5420   67.5796 H       1  ZINC000590699876    0.0600
     57 H57        -5.4452    0.7710   66.7042 H       1  ZINC000590699876    0.0700
     58 H58        -5.9162    1.2251   68.3603 H       1  ZINC000590699876    0.0700
     59 H59        -7.6341   -0.6202   68.1394 H       1  ZINC000590699876    0.0400
     60 H60        -8.9365   -0.4751   66.9349 H       1  ZINC000590699876    0.0700
     61 H61        -7.2859   -0.8917   66.4150 H       1  ZINC000590699876    0.0700
     62 H62       -10.9875    1.2391   62.2983 H       1  ZINC000590699876    0.1100
     63 H63        -9.9059    1.2067   60.8843 H       1  ZINC000590699876    0.0300
     64 H64       -11.8713   -0.1460   60.3831 H       1  ZINC000590699876    0.0900
     65 H65       -11.6597   -1.0759   61.8900 H       1  ZINC000590699876    0.0800
@<TRIPOS>BOND
     1     1     2    1
     2     1    33    1
     3     1    34    1
     4     1    35    1
     5     2     3    2
     6     2     4   am
     7     4     5    1
     8     4    36    1
     9     5     6    1
    10     5    37    1
    11     5    38    1
    12     6     7    2
    13     6     8   am
    14     8    12    1
    15     8     9    1
    16     9    10    1
    17     9    39    1
    18     9    40    1
    19    10    11    1
    20    10    41    1
    21    10    42    1
    22    11    12    1
    23    11    43    1
    24    11    44    1
    25    12    13    1
    26    12    14    1
    27    14    15    2
    28    14    16   am
    29    16    32    1
    30    16    17    1
    31    17    18    1
    32    17    45    1
    33    17    46    1
    34    18    19    1
    35    18    47    1
    36    18    48    1
    37    19    20    1
    38    19    31    1
    39    20    21    1
    40    20    49    1
    41    20    50    1
    42    21    22    2
    43    21    23   am
    44    23    28    1
    45    23    24    1
    46    24    25    1
    47    24    51    1
    48    24    52    1
    49    25    26    1
    50    25    53    1
    51    25    54    1
    52    26    27    1
    53    26    55    1
    54    26    56    1
    55    27    28    1
    56    27    57    1
    57    27    58    1
    58    28    29    1
    59    28    30    1
    60    30    59    1
    61    30    60    1
    62    30    61    1
    63    31    32    1
    64    31    62    1
    65    31    63    1
    66    32    64    1
    67    32    65    1
@<TRIPOS>SUBSTRUCTURE
     1 ZINC000590699876        1 TEMP              0 ****  ****    0 ROOT


##########                                Name:    ZINC001282645012
##########                DOCK_Rotatable_Bonds:                   9
##########                         Heavy_Atoms:                  27
##########                    Molecular_Weight:             372.511
##########                DOCK_Rotatable_Bonds:                   9
##########                       Formal_Charge:          -0.0200004
##########                     HBond_Acceptors:                   6
##########                        HBond_Donors:                   1
##########                         Heavy_Atoms:                  27
##########                          Grid_Score:          -30.624277
##########                     Grid_vdw_energy:          -30.056387
##########                      Grid_es_energy:           -0.567889
##########           Internal_energy_repulsive:           32.009998

@<TRIPOS>MOLECULE
ZINC001282645012
 59 61 1 0 0
SMALL
USER_CHARGES


@<TRIPOS>ATOM
      1 C1        -10.0242   -1.7010   56.2084 C.2     1  ZINC001282645012   -0.1900
      2 C2        -11.0974   -1.1788   56.7486 C.2     1  ZINC001282645012   -0.1300
      3 C3        -11.9052   -1.9752   57.7408 C.3     1  ZINC001282645012   -0.0500
      4 C4        -13.0235   -1.0988   58.3083 C.3     1  ZINC001282645012   -0.1500
      5 C5        -12.5155   -3.1918   57.0419 C.3     1  ZINC001282645012   -0.1400
      6 C6        -11.0103   -2.4366   58.8621 C.2     1  ZINC001282645012    0.5500
      7 O7        -11.0086   -3.6025   59.1959 O.2     1  ZINC001282645012   -0.5300
      8 N8        -10.2120   -1.5534   59.4940 N.am    1  ZINC001282645012   -0.6300
      9 C9        -10.0207   -0.0779   59.2857 C.3     1  ZINC001282645012    0.1200
     10 H10       -10.6157    0.3710   58.4904 H       1  ZINC001282645012    0.1300
     11 C11        -8.4759   -0.0009   59.0949 C.3     1  ZINC001282645012   -0.1300
     12 C12        -7.9437   -1.1342   60.0063 C.3     1  ZINC001282645012   -0.1300
     13 C13        -9.2442   -1.7403   60.6279 C.3     1  ZINC001282645012    0.1200
     14 H14        -9.1528   -2.7564   61.0117 H       1  ZINC001282645012    0.1200
     15 C15        -9.7369   -0.6757   61.6540 C.3     1  ZINC001282645012    0.1300
     16 H16       -10.5376   -1.0806   62.2728 H       1  ZINC001282645012    0.1000
     17 N17        -8.6264   -0.2112   62.4890 N.am    1  ZINC001282645012   -0.7100
     18 C18        -8.8744    0.3517   63.6882 C.2     1  ZINC001282645012    0.5100
     19 O19       -10.0171    0.4750   64.0755 O.2     1  ZINC001282645012   -0.5100
     20 C20        -7.7319    0.8279   64.5478 C.3     1  ZINC001282645012    0.1200
     21 H21        -6.7878    0.6254   64.0422 H       1  ZINC001282645012    0.1300
     22 C22        -7.8685    2.3325   64.7898 C.3     1  ZINC001282645012   -0.1100
     23 C23        -6.6665    3.0580   64.1817 C.3     1  ZINC001282645012   -0.1000
     24 C24        -6.9076    4.5682   64.2236 C.3     1  ZINC001282645012   -0.1500
     25 C25        -5.4078    2.7201   64.9832 C.3     1  ZINC001282645012   -0.1500
     26 N26        -7.7595    0.1223   65.8314 N.pl3   1  ZINC001282645012   -0.4500
     27 C27        -8.2363   -1.1414   66.0535 C.2     1  ZINC001282645012   -0.0600
     28 C28        -8.0703   -1.3954   67.3655 C.2     1  ZINC001282645012   -0.0200
     29 N29        -7.5077   -0.3163   67.9292 N.2     1  ZINC001282645012   -0.4900
     30 C30        -7.3140    0.5949   67.0154 C.2     1  ZINC001282645012    0.1900
     31 C31       -10.2972    0.4646   60.7203 C.3     1  ZINC001282645012   -0.1400
     32 H32        -9.7184   -2.7022   56.4741 H       1  ZINC001282645012    0.1000
     33 H33        -9.4478   -1.1320   55.4940 H       1  ZINC001282645012    0.1000
     34 H34       -11.4033   -0.1778   56.4829 H       1  ZINC001282645012    0.1100
     35 H35       -13.6708   -0.7651   57.4972 H       1  ZINC001282645012    0.0700
     36 H36       -13.6078   -1.6749   59.0259 H       1  ZINC001282645012    0.0700
     37 H37       -12.5888   -0.2321   58.8062 H       1  ZINC001282645012    0.0600
     38 H38       -11.7188   -3.8161   56.6375 H       1  ZINC001282645012    0.0600
     39 H39       -13.0998   -3.7678   57.7595 H       1  ZINC001282645012    0.0700
     40 H40       -13.1627   -2.8581   56.2308 H       1  ZINC001282645012    0.0700
     41 H41        -8.2077   -0.1867   58.0549 H       1  ZINC001282645012    0.0800
     42 H42        -8.0961    0.9664   59.4237 H       1  ZINC001282645012    0.0800
     43 H43        -7.4115   -1.8818   59.4182 H       1  ZINC001282645012    0.0700
     44 H44        -7.3000   -0.7288   60.7868 H       1  ZINC001282645012    0.0800
     45 H45        -7.7125   -0.3087   62.1787 H       1  ZINC001282645012    0.4000
     46 H46        -8.7850    2.6938   64.3235 H       1  ZINC001282645012    0.0900
     47 H47        -7.9054    2.5261   65.8619 H       1  ZINC001282645012    0.0800
     48 H48        -6.5351    2.7396   63.1475 H       1  ZINC001282645012    0.0700
     49 H49        -7.0391    4.8866   65.2578 H       1  ZINC001282645012    0.0600
     50 H50        -6.0513    5.0851   63.7904 H       1  ZINC001282645012    0.0600
     51 H51        -7.8044    4.8090   63.6527 H       1  ZINC001282645012    0.0500
     52 H52        -5.1877    1.6572   64.8829 H       1  ZINC001282645012    0.0600
     53 H53        -4.5682    3.3024   64.6038 H       1  ZINC001282645012    0.0600
     54 H54        -5.5709    2.9597   66.0339 H       1  ZINC001282645012    0.0600
     55 H55        -8.6636   -1.8068   65.3179 H       1  ZINC001282645012    0.1700
     56 H56        -8.3426   -2.3081   67.8747 H       1  ZINC001282645012    0.1700
     57 H57        -6.8760    1.5683   67.1799 H       1  ZINC001282645012    0.2000
     58 H58        -9.7440    1.3914   60.8720 H       1  ZINC001282645012    0.0900
     59 H59       -11.3615    0.6180   60.8979 H       1  ZINC001282645012    0.0900
@<TRIPOS>BOND
     1     1     2    2
     2     1    32    1
     3     1    33    1
     4     2     3    1
     5     2    34    1
     6     3     4    1
     7     3     5    1
     8     3     6    1
     9     4    35    1
    10     4    36    1
    11     4    37    1
    12     5    38    1
    13     5    39    1
    14     5    40    1
    15     6     7    2
    16     6     8   am
    17     8    13    1
    18     8     9    1
    19     9    10    1
    20     9    31    1
    21     9    11    1
    22    11    12    1
    23    11    41    1
    24    11    42    1
    25    12    13    1
    26    12    43    1
    27    12    44    1
    28    13    14    1
    29    13    15    1
    30    15    16    1
    31    15    17    1
    32    15    31    1
    33    17    18   am
    34    17    45    1
    35    18    19    2
    36    18    20    1
    37    20    21    1
    38    20    22    1
    39    20    26    1
    40    22    23    1
    41    22    46    1
    42    22    47    1
    43    23    24    1
    44    23    25    1
    45    23    48    1
    46    24    49    1
    47    24    50    1
    48    24    51    1
    49    25    52    1
    50    25    53    1
    51    25    54    1
    52    26    30    1
    53    26    27    1
    54    27    28    2
    55    27    55    1
    56    28    29    1
    57    28    56    1
    58    29    30    2
    59    30    57    1
    60    31    58    1
    61    31    59    1
@<TRIPOS>SUBSTRUCTURE
     1 ZINC001282645012        1 TEMP              0 ****  ****    0 ROOT


##########                                Name:    ZINC000654672208
##########                DOCK_Rotatable_Bonds:                   5
##########                         Heavy_Atoms:                  25
##########                    Molecular_Weight:             365.497
##########                DOCK_Rotatable_Bonds:                   5
##########                       Formal_Charge:           0.0100001
##########                     HBond_Acceptors:                   7
##########                        HBond_Donors:                   1
##########                         Heavy_Atoms:                  25
##########                          Grid_Score:          -30.622522
##########                     Grid_vdw_energy:          -30.685818
##########                      Grid_es_energy:            0.063296
##########           Internal_energy_repulsive:           13.937477

@<TRIPOS>MOLECULE
ZINC000654672208
 52 54 1 0 0
SMALL
USER_CHARGES


@<TRIPOS>ATOM
      1 C1         -7.6808    2.7578   55.4630 C.3     1  ZINC000654672208   -0.1100
      2 C2         -6.8064    2.5612   54.2515 C.ar    1  ZINC000654672208   -0.1300
      3 C3         -5.9210    3.5472   53.8602 C.ar    1  ZINC000654672208    0.1000
      4 N4         -5.1522    3.3822   52.8014 N.ar    1  ZINC000654672208   -0.4700
      5 C5         -5.1952    2.2803   52.0784 C.ar    1  ZINC000654672208    0.1200
      6 C6         -4.2952    2.1420   50.8776 C.3     1  ZINC000654672208   -0.0900
      7 C7         -3.0382    2.9900   51.0819 C.3     1  ZINC000654672208    0.1500
      8 N8         -2.1853    2.8929   49.8948 N.am    1  ZINC000654672208   -0.7500
      9 C9         -2.3654    3.7425   48.8642 C.2     1  ZINC000654672208    0.7100
     10 O10        -3.2360    4.5895   48.9197 O.2     1  ZINC000654672208   -0.5800
     11 N11        -1.5808    3.6532   47.7721 N.am    1  ZINC000654672208   -0.6300
     12 C12        -1.7655    4.5725   46.6410 C.3     1  ZINC000654672208    0.1300
     13 C13        -1.9391    3.7490   45.3611 C.3     1  ZINC000654672208   -0.1400
     14 C14        -0.7530    2.7949   45.2076 C.3     1  ZINC000654672208   -0.1100
     15 C15        -0.7158    1.8295   46.3983 C.3     1  ZINC000654672208   -0.0600
     16 C16         0.4662    0.8693   46.2293 C.3     1  ZINC000654672208   -0.1200
     17 C17         0.1178   -0.4747   46.9192 C.3     1  ZINC000654672208   -0.5800
     18 S18        -1.6317   -0.6973   46.4008 S.o2    1  ZINC000654672208    2.3800
     19 O19        -1.6766   -1.1432   45.0523 O.2     1  ZINC000654672208   -0.9300
     20 O20        -2.3416   -1.4042   47.4086 O.2     1  ZINC000654672208   -0.9300
     21 C21        -2.0586    1.0827   46.4745 C.3     1  ZINC000654672208   -0.5800
     22 C22        -0.5213    2.6389   47.6935 C.3     1  ZINC000654672208    0.1200
     23 C23        -6.0558    1.2506   52.4093 C.ar    1  ZINC000654672208   -0.1200
     24 C24        -6.0981   -0.0055   51.5778 C.3     1  ZINC000654672208   -0.1200
     25 C25        -6.8760    1.3859   53.5188 C.ar    1  ZINC000654672208   -0.0800
     26 H26        -7.1620    2.3918   56.3490 H       1  ZINC000654672208    0.0700
     27 H27        -7.9016    3.8185   55.5834 H       1  ZINC000654672208    0.0700
     28 H28        -8.6115    2.2055   55.3329 H       1  ZINC000654672208    0.0700
     29 H29        -5.8582    4.4640   54.4277 H       1  ZINC000654672208    0.1600
     30 H30        -4.0121    1.0966   50.7542 H       1  ZINC000654672208    0.0900
     31 H31        -4.8227    2.4831   49.9869 H       1  ZINC000654672208    0.0900
     32 H32        -3.3234    4.0301   51.2404 H       1  ZINC000654672208    0.0700
     33 H33        -2.4921    2.6264   51.9524 H       1  ZINC000654672208    0.0700
     34 H34        -1.4909    2.2171   49.8506 H       1  ZINC000654672208    0.3900
     35 H35        -2.6538    5.1821   46.8069 H       1  ZINC000654672208    0.1000
     36 H36        -0.8906    5.2156   46.5461 H       1  ZINC000654672208    0.0700
     37 H37        -2.8632    3.1739   45.4211 H       1  ZINC000654672208    0.0700
     38 H38        -1.9817    4.4176   44.5013 H       1  ZINC000654672208    0.0800
     39 H39        -0.8603    2.2275   44.2831 H       1  ZINC000654672208    0.0800
     40 H40         0.1731    3.3688   45.1762 H       1  ZINC000654672208    0.0800
     41 H41         0.6517    0.6995   45.1687 H       1  ZINC000654672208    0.1000
     42 H42         1.3557    1.2983   46.6907 H       1  ZINC000654672208    0.1000
     43 H43         0.7444   -1.2830   46.5423 H       1  ZINC000654672208    0.1400
     44 H44         0.1981   -0.3915   48.0030 H       1  ZINC000654672208    0.1400
     45 H45        -2.5645    1.3108   47.4125 H       1  ZINC000654672208    0.1400
     46 H46        -2.6900    1.3545   45.6286 H       1  ZINC000654672208    0.1400
     47 H47         0.4554    3.1226   47.6791 H       1  ZINC000654672208    0.0800
     48 H48        -0.5895    1.9736   48.5541 H       1  ZINC000654672208    0.0800
     49 H49        -5.3805   -0.7258   51.9709 H       1  ZINC000654672208    0.0800
     50 H50        -7.1000   -0.4330   51.6160 H       1  ZINC000654672208    0.0700
     51 H51        -5.8443    0.2337   50.5451 H       1  ZINC000654672208    0.0700
     52 H52        -7.5583    0.5978   53.8012 H       1  ZINC000654672208    0.1300
@<TRIPOS>BOND
     1     1     2    1
     2     1    26    1
     3     1    27    1
     4     1    28    1
     5     2    25   ar
     6     2     3   ar
     7     3     4   ar
     8     3    29    1
     9     4     5   ar
    10     5     6    1
    11     5    23   ar
    12     6     7    1
    13     6    30    1
    14     6    31    1
    15     7     8    1
    16     7    32    1
    17     7    33    1
    18     8     9   am
    19     8    34    1
    20     9    10    2
    21     9    11   am
    22    11    22    1
    23    11    12    1
    24    12    13    1
    25    12    35    1
    26    12    36    1
    27    13    14    1
    28    13    37    1
    29    13    38    1
    30    14    15    1
    31    14    39    1
    32    14    40    1
    33    15    21    1
    34    15    16    1
    35    15    22    1
    36    16    17    1
    37    16    41    1
    38    16    42    1
    39    17    18    1
    40    17    43    1
    41    17    44    1
    42    18    19    2
    43    18    20    2
    44    18    21    1
    45    21    45    1
    46    21    46    1
    47    22    47    1
    48    22    48    1
    49    23    24    1
    50    23    25   ar
    51    24    49    1
    52    24    50    1
    53    24    51    1
    54    25    52    1
@<TRIPOS>SUBSTRUCTURE
     1 ZINC000654672208        1 TEMP              0 ****  ****    0 ROOT


##########                                Name:    ZINC000676564986
##########                DOCK_Rotatable_Bonds:                   5
##########                         Heavy_Atoms:                  25
##########                    Molecular_Weight:             347.444
##########                DOCK_Rotatable_Bonds:                   5
##########                       Formal_Charge:          -0.0100005
##########                     HBond_Acceptors:                   6
##########                        HBond_Donors:                   1
##########                         Heavy_Atoms:                  25
##########                          Grid_Score:          -30.620863
##########                     Grid_vdw_energy:          -29.135324
##########                      Grid_es_energy:           -1.485539
##########           Internal_energy_repulsive:            4.562614

@<TRIPOS>MOLECULE
ZINC000676564986
 42 45 1 0 0
SMALL
USER_CHARGES


@<TRIPOS>ATOM
      1 C1          0.0942   -2.0017   47.8451 C.3     1  ZINC000676564986    0.0800
      2 N2         -0.3670   -0.7998   48.5444 N.pl3   1  ZINC000676564986   -0.4800
      3 C3          0.0093   -0.3978   49.7914 C.2     1  ZINC000676564986    0.2500
      4 N4         -0.5935    0.7132   50.1012 N.2     1  ZINC000676564986   -0.4600
      5 C5         -1.3928    1.0936   49.0757 C.ar    1  ZINC000676564986   -0.1100
      6 C6         -2.2588    2.1762   48.8469 C.ar    1  ZINC000676564986    0.5100
      7 N7         -2.4326    3.1588   49.8058 N.pl3   1  ZINC000676564986   -0.6900
      8 C8         -3.7215    3.8448   49.9264 C.3     1  ZINC000676564986    0.1700
      9 C9         -4.5361    3.1954   51.0154 C.ar    1  ZINC000676564986   -0.0800
     10 C10        -4.9532    3.9411   52.1028 C.ar    1  ZINC000676564986   -0.1100
     11 C11        -5.6997    3.3495   53.1024 C.ar    1  ZINC000676564986   -0.0700
     12 C12        -6.0318    2.0029   53.0149 C.ar    1  ZINC000676564986   -0.1300
     13 S13        -6.9848    1.2437   54.2877 S.3     1  ZINC000676564986   -0.0100
     14 C14        -8.5235    0.9212   53.4921 C.ar    1  ZINC000676564986   -0.1000
     15 C15        -9.0719    1.8622   52.6289 C.ar    1  ZINC000676564986   -0.1200
     16 C16       -10.2776    1.6058   52.0068 C.ar    1  ZINC000676564986   -0.1000
     17 C17       -10.9395    0.4144   52.2418 C.ar    1  ZINC000676564986   -0.1200
     18 C18       -10.3968   -0.5244   53.1003 C.ar    1  ZINC000676564986   -0.1000
     19 C19        -9.1887   -0.2771   53.7219 C.ar    1  ZINC000676564986   -0.1000
     20 C20        -5.6110    1.2566   51.9207 C.ar    1  ZINC000676564986   -0.0700
     21 C21        -4.8695    1.8563   50.9220 C.ar    1  ZINC000676564986   -0.1100
     22 N22        -2.9070    2.2348   47.6880 N.ar    1  ZINC000676564986   -0.5900
     23 C23        -2.7470    1.3021   46.7671 C.ar    1  ZINC000676564986    0.3600
     24 N24        -1.9471    0.2704   46.9378 N.ar    1  ZINC000676564986   -0.5600
     25 C25        -1.2527    0.1305   48.0621 C.ar    1  ZINC000676564986    0.3000
     26 H26         0.9889   -1.7659   47.2688 H       1  ZINC000676564986    0.0800
     27 H27         0.3254   -2.7795   48.5730 H       1  ZINC000676564986    0.0900
     28 H28        -0.6884   -2.3539   47.1731 H       1  ZINC000676564986    0.0900
     29 H29         0.7048   -0.9238   50.4285 H       1  ZINC000676564986    0.2200
     30 H30        -1.7011    3.3934   50.3980 H       1  ZINC000676564986    0.4200
     31 H31        -3.5534    4.8928   50.1742 H       1  ZINC000676564986    0.0800
     32 H32        -4.2593    3.7767   48.9808 H       1  ZINC000676564986    0.0800
     33 H33        -4.6945    4.9875   52.1704 H       1  ZINC000676564986    0.1300
     34 H34        -6.0248    3.9323   53.9515 H       1  ZINC000676564986    0.1400
     35 H35        -8.5558    2.7929   52.4451 H       1  ZINC000676564986    0.1200
     36 H36       -10.7046    2.3367   51.3361 H       1  ZINC000676564986    0.1300
     37 H37       -11.8826    0.2167   51.7541 H       1  ZINC000676564986    0.1300
     38 H38       -10.9163   -1.4536   53.2816 H       1  ZINC000676564986    0.1300
     39 H39        -8.7653   -1.0106   54.3919 H       1  ZINC000676564986    0.1300
     40 H40        -5.8672    0.2099   51.8493 H       1  ZINC000676564986    0.1300
     41 H41        -4.5421    1.2770   50.0715 H       1  ZINC000676564986    0.1300
     42 H42        -3.2931    1.3885   45.8394 H       1  ZINC000676564986    0.2000
@<TRIPOS>BOND
     1     1     2    1
     2     1    26    1
     3     1    27    1
     4     1    28    1
     5     2    25    1
     6     2     3    1
     7     3     4    2
     8     3    29    1
     9     4     5    1
    10     5    25   ar
    11     5     6   ar
    12     6     7    1
    13     6    22   ar
    14     7     8    1
    15     7    30    1
    16     8     9    1
    17     8    31    1
    18     8    32    1
    19     9    21   ar
    20     9    10   ar
    21    10    11   ar
    22    10    33    1
    23    11    12   ar
    24    11    34    1
    25    12    13    1
    26    12    20   ar
    27    13    14    1
    28    14    19   ar
    29    14    15   ar
    30    15    16   ar
    31    15    35    1
    32    16    17   ar
    33    16    36    1
    34    17    18   ar
    35    17    37    1
    36    18    19   ar
    37    18    38    1
    38    19    39    1
    39    20    21   ar
    40    20    40    1
    41    21    41    1
    42    22    23   ar
    43    23    24   ar
    44    23    42    1
    45    24    25   ar
@<TRIPOS>SUBSTRUCTURE
     1 ZINC000676564986        1 TEMP              0 ****  ****    0 ROOT


##########                                Name:    ZINC000185598309
##########                DOCK_Rotatable_Bonds:                  14
##########                         Heavy_Atoms:                  25
##########                    Molecular_Weight:             347.457
##########                DOCK_Rotatable_Bonds:                  14
##########                       Formal_Charge:               -0.02
##########                     HBond_Acceptors:                   6
##########                        HBond_Donors:                   4
##########                         Heavy_Atoms:                  25
##########                          Grid_Score:          -30.618076
##########                     Grid_vdw_energy:          -31.367708
##########                      Grid_es_energy:            0.749632
##########           Internal_energy_repulsive:           22.513859

@<TRIPOS>MOLECULE
ZINC000185598309
 54 54 1 0 0
SMALL
USER_CHARGES


@<TRIPOS>ATOM
      1 C1        -10.4521   -1.7590   56.3014 C.3     1  ZINC000185598309   -0.1300
      2 C2         -9.8804   -1.2320   55.0104 C.2     1  ZINC000185598309   -0.1600
      3 C3         -9.4404   -2.0653   54.1005 C.2     1  ZINC000185598309   -0.1600
      4 C4         -8.8671   -1.5384   52.8103 C.3     1  ZINC000185598309   -0.0900
      5 C5         -8.4377   -0.0822   53.0001 C.3     1  ZINC000185598309    0.1700
      6 H6         -8.1556    0.0808   54.0402 H       1  ZINC000185598309    0.1000
      7 C7         -9.5999    0.8437   52.6356 C.3     1  ZINC000185598309    0.0600
      8 O8         -9.9289    0.6747   51.2554 O.3     1  ZINC000185598309   -0.5700
      9 N9         -7.2930    0.2063   52.1326 N.am    1  ZINC000185598309   -0.7300
     10 C10        -6.3963    1.1467   52.4906 C.2     1  ZINC000185598309    0.7000
     11 O11        -6.5366    1.7544   53.5343 O.2     1  ZINC000185598309   -0.5900
     12 N12        -5.3440    1.4132   51.6918 N.am    1  ZINC000185598309   -0.7400
     13 C13        -4.3703    2.4366   52.0802 C.3     1  ZINC000185598309    0.1800
     14 C14        -3.7213    3.0069   50.8453 C.ar    1  ZINC000185598309   -0.0900
     15 C15        -4.0209    4.2941   50.4396 C.ar    1  ZINC000185598309   -0.1100
     16 C16        -3.4279    4.8209   49.3066 C.ar    1  ZINC000185598309   -0.1000
     17 C17        -2.5339    4.0622   48.5771 C.ar    1  ZINC000185598309   -0.1100
     18 C18        -2.2305    2.7688   48.9823 C.ar    1  ZINC000185598309    0.1400
     19 N19        -1.3248    1.9976   48.2457 N.am    1  ZINC000185598309   -0.6800
     20 C20        -1.7752    1.0156   47.4399 C.2     1  ZINC000185598309    0.5200
     21 O21        -2.9657    0.8004   47.3533 O.2     1  ZINC000185598309   -0.5200
     22 C22        -0.7996    0.1850   46.6465 C.3     1  ZINC000185598309   -0.1100
     23 H23        -1.3402   -0.5895   46.1024 H       1  ZINC000185598309    0.1000
     24 C24         0.2061   -0.4673   47.5973 C.3     1  ZINC000185598309   -0.1500
     25 C25        -0.0561    1.0810   45.6539 C.3     1  ZINC000185598309   -0.1100
     26 C26        -0.8866    1.2267   44.3772 C.3     1  ZINC000185598309   -0.1600
     27 C27        -2.8237    2.2447   50.1232 C.ar    1  ZINC000185598309   -0.1300
     28 H28       -10.7634   -0.9237   56.9287 H       1  ZINC000185598309    0.0600
     29 H29       -11.3129   -2.3920   56.0859 H       1  ZINC000185598309    0.0600
     30 H30        -9.6935   -2.3423   56.8233 H       1  ZINC000185598309    0.0600
     31 H31        -9.8334   -0.1672   54.8354 H       1  ZINC000185598309    0.1100
     32 H32        -9.4886   -3.1302   54.2749 H       1  ZINC000185598309    0.1100
     33 H33        -8.0025   -2.1380   52.5252 H       1  ZINC000185598309    0.0900
     34 H34        -9.6229   -1.5953   52.0269 H       1  ZINC000185598309    0.0800
     35 H35       -10.4668    0.5972   53.2486 H       1  ZINC000185598309    0.0500
     36 H36        -9.3100    1.8788   52.8159 H       1  ZINC000185598309    0.0500
     37 H37       -10.6593    1.2322   50.9539 H       1  ZINC000185598309    0.3800
     38 H38        -7.1804   -0.2793   51.3005 H       1  ZINC000185598309    0.4000
     39 H39        -5.2314    0.9276   50.8597 H       1  ZINC000185598309    0.4000
     40 H40        -4.8777    3.2329   52.6247 H       1  ZINC000185598309    0.0700
     41 H41        -3.6077    1.9892   52.7177 H       1  ZINC000185598309    0.0800
     42 H42        -4.7197    4.8895   51.0083 H       1  ZINC000185598309    0.1300
     43 H43        -3.6644    5.8265   48.9918 H       1  ZINC000185598309    0.1300
     44 H44        -2.0714    4.4740   47.6923 H       1  ZINC000185598309    0.1300
     45 H45        -0.3727    2.1696   48.3150 H       1  ZINC000185598309    0.4100
     46 H46        -0.3237   -1.1056   48.3045 H       1  ZINC000185598309    0.0600
     47 H47         0.9117   -1.0680   47.0236 H       1  ZINC000185598309    0.0800
     48 H48         0.7466    0.3072   48.1414 H       1  ZINC000185598309    0.0600
     49 H49         0.1016    2.0635   46.0989 H       1  ZINC000185598309    0.0700
     50 H50         0.9076    0.6331   45.4115 H       1  ZINC000185598309    0.0700
     51 H51        -1.0442    0.2442   43.9323 H       1  ZINC000185598309    0.0600
     52 H52        -1.8502    1.6746   44.6197 H       1  ZINC000185598309    0.0600
     53 H53        -0.3568    1.8650   43.6701 H       1  ZINC000185598309    0.0600
     54 H54        -2.5898    1.2393   50.4409 H       1  ZINC000185598309    0.1300
@<TRIPOS>BOND
     1     1     2    1
     2     1    28    1
     3     1    29    1
     4     1    30    1
     5     2     3    2
     6     2    31    1
     7     3     4    1
     8     3    32    1
     9     4     5    1
    10     4    33    1
    11     4    34    1
    12     5     6    1
    13     5     7    1
    14     5     9    1
    15     7     8    1
    16     7    35    1
    17     7    36    1
    18     8    37    1
    19     9    10   am
    20     9    38    1
    21    10    11    2
    22    10    12   am
    23    12    13    1
    24    12    39    1
    25    13    14    1
    26    13    40    1
    27    13    41    1
    28    14    27   ar
    29    14    15   ar
    30    15    16   ar
    31    15    42    1
    32    16    17   ar
    33    16    43    1
    34    17    18   ar
    35    17    44    1
    36    18    19    1
    37    18    27   ar
    38    19    20   am
    39    19    45    1
    40    20    21    2
    41    20    22    1
    42    22    23    1
    43    22    24    1
    44    22    25    1
    45    24    46    1
    46    24    47    1
    47    24    48    1
    48    25    26    1
    49    25    49    1
    50    25    50    1
    51    26    51    1
    52    26    52    1
    53    26    53    1
    54    27    54    1
@<TRIPOS>SUBSTRUCTURE
     1 ZINC000185598309        1 TEMP              0 ****  ****    0 ROOT


##########                                Name:    ZINC001326371752
##########                DOCK_Rotatable_Bonds:                   5
##########                         Heavy_Atoms:                  25
##########                    Molecular_Weight:             360.397
##########                DOCK_Rotatable_Bonds:                   5
##########                       Formal_Charge:           0.0199999
##########                     HBond_Acceptors:                  10
##########                        HBond_Donors:                   0
##########                         Heavy_Atoms:                  25
##########                          Grid_Score:          -30.611910
##########                     Grid_vdw_energy:          -30.133989
##########                      Grid_es_energy:           -0.477921
##########           Internal_energy_repulsive:           12.343672

@<TRIPOS>MOLECULE
ZINC001326371752
 41 44 1 0 0
SMALL
USER_CHARGES


@<TRIPOS>ATOM
      1 C1         -6.2939   -0.4804   51.7885 C.3     1  ZINC001326371752    0.0300
      2 O2         -7.6494   -0.9251   51.7048 O.3     1  ZINC001326371752   -0.3800
      3 C3         -8.5922   -0.0312   52.2999 C.3     1  ZINC001326371752    0.0500
      4 C4         -8.4219   -0.0484   53.8203 C.3     1  ZINC001326371752    0.1200
      5 N5         -9.1690   -1.1762   54.3826 N.pl3   1  ZINC001326371752   -0.2800
      6 N6         -9.4503   -2.2789   53.7732 N.2     1  ZINC001326371752   -0.0800
      7 N7        -10.1209   -3.0605   54.5506 N.2     1  ZINC001326371752   -0.2500
      8 C8        -10.2904   -2.4520   55.7188 C.2     1  ZINC001326371752   -0.0400
      9 C9         -9.6768   -1.2464   55.6261 C.2     1  ZINC001326371752    0.0000
     10 C10        -9.6151   -0.2290   56.7334 C.3     1  ZINC001326371752   -0.0600
     11 C11       -10.6965   -0.5618   57.7699 C.3     1  ZINC001326371752    0.1200
     12 N12       -10.6747   -2.0059   58.0458 N.am    1  ZINC001326371752   -0.6100
     13 C13       -10.3545   -2.4695   59.2702 C.2     1  ZINC001326371752    0.6100
     14 O14       -10.3409   -3.6677   59.4826 O.2     1  ZINC001326371752   -0.5100
     15 C15       -10.0224   -1.5296   60.3471 C.2     1  ZINC001326371752   -0.3400
     16 C16        -8.7037   -1.1005   60.5371 C.2     1  ZINC001326371752    0.2400
     17 N17        -8.4416   -0.2549   61.5155 N.2     1  ZINC001326371752   -0.5100
     18 C18        -9.3909    0.1994   62.3229 C.2     1  ZINC001326371752    0.2900
     19 S19        -9.3038    1.2918   63.6516 S.3     1  ZINC001326371752    0.2500
     20 C20       -11.0354    1.2236   64.0149 C.2     1  ZINC001326371752   -0.2100
     21 C21       -11.5496    0.3946   63.1222 C.2     1  ZINC001326371752    0.0500
     22 N22       -10.6940   -0.1675   62.2057 N.am    1  ZINC001326371752   -0.4600
     23 C23       -11.0281   -1.0368   61.2071 C.2     1  ZINC001326371752    0.5500
     24 O24       -12.1859   -1.3887   61.0618 O.2     1  ZINC001326371752   -0.5000
     25 C25       -11.0077   -2.9372   56.9530 C.3     1  ZINC001326371752    0.2000
     26 H26        -5.6412   -1.2134   51.3146 H       1  ZINC001326371752    0.0900
     27 H27        -6.1940    0.4782   51.2794 H       1  ZINC001326371752    0.0500
     28 H28        -6.0128   -0.3667   52.8355 H       1  ZINC001326371752    0.0500
     29 H29        -8.4213    0.9786   51.9266 H       1  ZINC001326371752    0.0600
     30 H30        -9.6037   -0.3468   52.0440 H       1  ZINC001326371752    0.0600
     31 H31        -7.3654   -0.1536   54.0664 H       1  ZINC001326371752    0.1200
     32 H32        -8.8015    0.8836   54.2389 H       1  ZINC001326371752    0.1200
     33 H33        -8.6334   -0.2621   57.2059 H       1  ZINC001326371752    0.0900
     34 H34        -9.7935    0.7660   56.3258 H       1  ZINC001326371752    0.1000
     35 H35       -10.4999   -0.0122   58.6905 H       1  ZINC001326371752    0.1100
     36 H36       -11.6744   -0.2806   57.3790 H       1  ZINC001326371752    0.0800
     37 H37        -7.9131   -1.4563   59.8932 H       1  ZINC001326371752    0.1900
     38 H38       -11.5604    1.7477   64.7998 H       1  ZINC001326371752    0.2200
     39 H39       -12.6053    0.1672   63.1139 H       1  ZINC001326371752    0.2000
     40 H40       -12.0833   -2.9332   56.7767 H       1  ZINC001326371752    0.1000
     41 H41       -10.6762   -3.9435   57.2089 H       1  ZINC001326371752    0.1000
@<TRIPOS>BOND
     1     1     2    1
     2     1    26    1
     3     1    27    1
     4     1    28    1
     5     2     3    1
     6     3     4    1
     7     3    29    1
     8     3    30    1
     9     4     5    1
    10     4    31    1
    11     4    32    1
    12     5     9    1
    13     5     6    1
    14     6     7    2
    15     7     8    1
    16     8    25    1
    17     8     9    2
    18     9    10    1
    19    10    11    1
    20    10    33    1
    21    10    34    1
    22    11    12    1
    23    11    35    1
    24    11    36    1
    25    12    13   am
    26    12    25    1
    27    13    14    2
    28    13    15    1
    29    15    23    1
    30    15    16    2
    31    16    17    1
    32    16    37    1
    33    17    18    2
    34    18    22    1
    35    18    19    1
    36    19    20    1
    37    20    21    2
    38    20    38    1
    39    21    22    1
    40    21    39    1
    41    22    23   am
    42    23    24    2
    43    25    40    1
    44    25    41    1
@<TRIPOS>SUBSTRUCTURE
     1 ZINC001326371752        1 TEMP              0 ****  ****    0 ROOT


##########                                Name:    ZINC000675319328
##########                DOCK_Rotatable_Bonds:                   7
##########                         Heavy_Atoms:                  26
##########                    Molecular_Weight:             363.475
##########                DOCK_Rotatable_Bonds:                   7
##########                       Formal_Charge:          -0.0200007
##########                     HBond_Acceptors:                   6
##########                        HBond_Donors:                   1
##########                         Heavy_Atoms:                  26
##########                          Grid_Score:          -30.599916
##########                     Grid_vdw_energy:          -30.411053
##########                      Grid_es_energy:           -0.188863
##########           Internal_energy_repulsive:           48.647491

@<TRIPOS>MOLECULE
ZINC000675319328
 56 58 1 0 0
SMALL
USER_CHARGES


@<TRIPOS>ATOM
      1 C1         -0.7122    5.3474   49.4793 C.3     1  ZINC000675319328   -0.1600
      2 C2         -2.1595    5.3325   48.9835 C.3     1  ZINC000675319328    0.1600
      3 H3         -2.3043    6.1355   48.2607 H       1  ZINC000675319328    0.0900
      4 C4         -3.1066    5.5354   50.1678 C.3     1  ZINC000675319328   -0.1200
      5 C5         -2.9035    4.4083   51.1823 C.3     1  ZINC000675319328   -0.1200
      6 H6         -1.8952    4.4376   51.5955 H       1  ZINC000675319328    0.0800
      7 C7         -3.9662    4.4836   52.3123 C.3     1  ZINC000675319328   -0.1500
      8 C8         -4.0547    2.9949   52.7326 C.3     1  ZINC000675319328    0.0500
      9 O9         -3.9085    2.2513   51.5123 O.3     1  ZINC000675319328   -0.3900
     10 C10        -3.1954    3.0340   50.5424 C.3     1  ZINC000675319328    0.0500
     11 N11        -2.4440    4.0445   48.3459 N.am    1  ZINC000675319328   -0.7400
     12 C12        -2.2273    3.8838   47.0254 C.2     1  ZINC000675319328    0.7000
     13 O13        -1.7956    4.8077   46.3633 O.2     1  ZINC000675319328   -0.5900
     14 N14        -2.4890    2.6989   46.4388 N.am    1  ZINC000675319328   -0.6200
     15 C15        -2.2415    2.5535   44.9909 C.3     1  ZINC000675319328    0.1300
     16 C16        -1.5921    1.1972   44.6684 C.3     1  ZINC000675319328   -0.1300
     17 C17        -0.5634    0.8622   45.7258 C.3     1  ZINC000675319328    0.0700
     18 N18        -1.1975    0.0651   46.7745 N.3     1  ZINC000675319328   -0.5500
     19 C19        -0.2654   -0.9353   47.3116 C.3     1  ZINC000675319328    0.1000
     20 C20         0.7884   -0.2464   48.1399 C.ar    1  ZINC000675319328   -0.0900
     21 C21         0.6472   -0.1707   49.5131 C.ar    1  ZINC000675319328   -0.0900
     22 C22         1.6129    0.4607   50.2737 C.ar    1  ZINC000675319328   -0.1500
     23 C23         2.7224    1.0171   49.6601 C.ar    1  ZINC000675319328    0.1000
     24 F24         3.6673    1.6342   50.4028 F       1  ZINC000675319328   -0.1400
     25 C25         2.8630    0.9402   48.2848 C.ar    1  ZINC000675319328   -0.1500
     26 C26         1.8983    0.3040   47.5267 C.ar    1  ZINC000675319328   -0.0700
     27 C27        -1.8246    0.7854   47.8179 C.3     1  ZINC000675319328    0.0500
     28 C28        -2.9970    1.6147   47.2546 C.3     1  ZINC000675319328    0.1100
     29 H29        -0.0375    5.2029   48.6355 H       1  ZINC000675319328    0.0600
     30 H30        -0.5005    6.3057   49.9537 H       1  ZINC000675319328    0.0700
     31 H31        -0.5674    4.5444   50.2020 H       1  ZINC000675319328    0.0500
     32 H32        -2.8949    6.4937   50.6422 H       1  ZINC000675319328    0.0700
     33 H33        -4.1376    5.5248   49.8144 H       1  ZINC000675319328    0.0900
     34 H34        -3.6187    5.1048   53.1377 H       1  ZINC000675319328    0.0800
     35 H35        -4.9221    4.8412   51.9294 H       1  ZINC000675319328    0.0800
     36 H36        -3.2493    2.7486   53.4244 H       1  ZINC000675319328    0.0600
     37 H37        -5.0228    2.7873   53.1884 H       1  ZINC000675319328    0.0900
     38 H38        -3.8088    3.1668   49.6512 H       1  ZINC000675319328    0.0700
     39 H39        -2.2619    2.5363   50.2796 H       1  ZINC000675319328    0.0700
     40 H40        -2.7883    3.3074   48.8740 H       1  ZINC000675319328    0.3900
     41 H41        -3.1888    2.6315   44.4574 H       1  ZINC000675319328    0.0600
     42 H42        -1.5797    3.3538   44.6598 H       1  ZINC000675319328    0.0900
     43 H43        -2.3590    0.4229   44.6502 H       1  ZINC000675319328    0.0800
     44 H44        -1.1069    1.2497   43.6939 H       1  ZINC000675319328    0.0800
     45 H45         0.2494    0.2922   45.2758 H       1  ZINC000675319328    0.0700
     46 H46        -0.1697    1.7831   46.1558 H       1  ZINC000675319328    0.0400
     47 H47        -0.8118   -1.6434   47.9346 H       1  ZINC000675319328    0.0900
     48 H48         0.2104   -1.4677   46.4881 H       1  ZINC000675319328    0.0400
     49 H49        -0.2183   -0.6048   49.9915 H       1  ZINC000675319328    0.1300
     50 H50         1.5021    0.5204   51.3463 H       1  ZINC000675319328    0.1400
     51 H51         3.7278    1.3741   47.8050 H       1  ZINC000675319328    0.1400
     52 H52         2.0078    0.2436   46.4540 H       1  ZINC000675319328    0.1300
     53 H53        -2.2005    0.0863   48.5650 H       1  ZINC000675319328    0.0900
     54 H54        -1.0999    1.4539   48.2824 H       1  ZINC000675319328    0.0300
     55 H55        -3.5793    2.0261   48.0791 H       1  ZINC000675319328    0.0700
     56 H56        -3.6346    0.9742   46.6453 H       1  ZINC000675319328    0.0900
@<TRIPOS>BOND
     1     1     2    1
     2     1    29    1
     3     1    30    1
     4     1    31    1
     5     2     3    1
     6     2     4    1
     7     2    11    1
     8     4     5    1
     9     4    32    1
    10     4    33    1
    11     5     6    1
    12     5    10    1
    13     5     7    1
    14     7     8    1
    15     7    34    1
    16     7    35    1
    17     8     9    1
    18     8    36    1
    19     8    37    1
    20     9    10    1
    21    10    38    1
    22    10    39    1
    23    11    12   am
    24    11    40    1
    25    12    13    2
    26    12    14   am
    27    14    28    1
    28    14    15    1
    29    15    16    1
    30    15    41    1
    31    15    42    1
    32    16    17    1
    33    16    43    1
    34    16    44    1
    35    17    18    1
    36    17    45    1
    37    17    46    1
    38    18    19    1
    39    18    27    1
    40    19    20    1
    41    19    47    1
    42    19    48    1
    43    20    26   ar
    44    20    21   ar
    45    21    22   ar
    46    21    49    1
    47    22    23   ar
    48    22    50    1
    49    23    24    1
    50    23    25   ar
    51    25    26   ar
    52    25    51    1
    53    26    52    1
    54    27    28    1
    55    27    53    1
    56    27    54    1
    57    28    55    1
    58    28    56    1
@<TRIPOS>SUBSTRUCTURE
     1 ZINC000675319328        1 TEMP              0 ****  ****    0 ROOT


##########                                Name:    ZINC000291036115
##########                DOCK_Rotatable_Bonds:                   5
##########                         Heavy_Atoms:                  22
##########                    Molecular_Weight:             366.193
##########                DOCK_Rotatable_Bonds:                   5
##########                       Formal_Charge:                0.01
##########                     HBond_Acceptors:                   7
##########                        HBond_Donors:                   0
##########                         Heavy_Atoms:                  22
##########                          Grid_Score:          -30.598125
##########                     Grid_vdw_energy:          -29.965097
##########                      Grid_es_energy:           -0.633028
##########           Internal_energy_repulsive:            9.174541

@<TRIPOS>MOLECULE
ZINC000291036115
 35 37 1 0 0
SMALL
USER_CHARGES


@<TRIPOS>ATOM
      1 C1         -2.2787    4.3561   48.4399 C.3     1  <0>        -0.1500
      2 C2         -2.8033    3.0704   49.0824 C.3     1  <0>        -0.0400
      3 H3         -3.6969    2.7385   48.5538 H       1  <0>         0.0900
      4 C4         -3.1478    3.3370   50.5491 C.3     1  <0>        -0.0200
      5 C5         -4.1903    2.3501   51.0076 C.2     1  <0>         0.1900
      6 N6         -5.1401    2.5685   51.8850 N.2     1  <0>        -0.4500
      7 C7         -5.8222    1.4129   51.9753 C.2     1  <0>         0.1500
      8 C8         -7.0162    1.1485   52.8560 C.3     1  <0>         0.2300
      9 N9         -7.8822    0.1534   52.2188 N.pl3   1  <0>        -0.3900
     10 C10        -7.5509   -1.1052   51.8817 C.2     1  <0>         0.2600
     11 N11        -8.5989   -1.6692   51.3382 N.2     1  <0>        -0.5400
     12 C12        -9.6135   -0.8059   51.3111 C.2     1  <0>         0.2000
     13 N13        -9.2251    0.3227   51.8441 N.2     1  <0>        -0.3100
     14 N14        -5.2630    0.5664   51.1634 N.2     1  <0>        -0.3600
     15 O15        -4.3271    1.0868   50.5935 O.3     1  <0>         0.0900
     16 C16        -1.7452    2.0005   49.0014 C.ar    1  <0>        -0.0900
     17 C17        -0.5556    2.1523   49.6887 C.ar    1  <0>        -0.0700
     18 C18         0.4159    1.1717   49.6159 C.ar    1  <0>        -0.1400
     19 C19         0.1974    0.0368   48.8543 C.ar    1  <0>         0.1300
     20 F20         1.1460   -0.9225   48.7827 F       1  <0>        -0.1200
     21 C21        -0.9954   -0.1148   48.1655 C.ar    1  <0>        -0.1300
     22 Br22       -1.2966   -1.6646   47.1247 Br      1  <0>        -0.0200
     23 C23        -1.9675    0.8651   48.2443 C.ar    1  <0>        -0.0500
     24 H24        -3.0441    5.1300   48.4985 H       1  <0>         0.0600
     25 H25        -1.3852    4.6880   48.9685 H       1  <0>         0.0700
     26 H26        -2.0333    4.1662   47.3950 H       1  <0>         0.0700
     27 H27        -2.2508    3.2275   51.1587 H       1  <0>         0.1200
     28 H28        -3.5362    4.3501   50.6528 H       1  <0>         0.1100
     29 H29        -6.6792    0.7717   53.8216 H       1  <0>         0.1300
     30 H30        -7.5726    2.0744   53.0013 H       1  <0>         0.1200
     31 H31        -6.5875   -1.5695   52.0327 H       1  <0>         0.2200
     32 H32       -10.5985   -1.0074   50.9166 H       1  <0>         0.2200
     33 H33        -0.3848    3.0380   50.2828 H       1  <0>         0.1400
     34 H34         1.3453    1.2910   50.1528 H       1  <0>         0.1500
     35 H35        -2.8973    0.7476   47.7077 H       1  <0>         0.1400
@<TRIPOS>BOND
     1     1     2    1
     2     1    24    1
     3     1    25    1
     4     1    26    1
     5     2     3    1
     6     2     4    1
     7     2    16    1
     8     4     5    1
     9     4    27    1
    10     4    28    1
    11     5    15    1
    12     5     6    2
    13     6     7    1
    14     7     8    1
    15     7    14    2
    16     8     9    1
    17     8    29    1
    18     8    30    1
    19     9    13    1
    20     9    10    1
    21    10    11    2
    22    10    31    1
    23    11    12    1
    24    12    13    2
    25    12    32    1
    26    14    15    1
    27    16    23   ar
    28    16    17   ar
    29    17    18   ar
    30    17    33    1
    31    18    19   ar
    32    18    34    1
    33    19    20    1
    34    19    21   ar
    35    21    22    1
    36    21    23   ar
    37    23    35    1
@<TRIPOS>SUBSTRUCTURE
     1 <0>         1 TEMP              0 ****  ****    0 ROOT


##########                                Name:    ZINC000600609084
##########                DOCK_Rotatable_Bonds:                   8
##########                         Heavy_Atoms:                  30
##########                    Molecular_Weight:             422.548
##########                DOCK_Rotatable_Bonds:                   8
##########                       Formal_Charge:           0.0100005
##########                     HBond_Acceptors:                   6
##########                        HBond_Donors:                   2
##########                         Heavy_Atoms:                  30
##########                          Grid_Score:          -30.586430
##########                     Grid_vdw_energy:          -30.046820
##########                      Grid_es_energy:           -0.539610
##########           Internal_energy_repulsive:           19.183676

@<TRIPOS>MOLECULE
ZINC000600609084
 56 59 1 0 0
SMALL
USER_CHARGES


@<TRIPOS>ATOM
      1 O1        -11.8354   -1.6707   56.3822 O.2     1  ZINC000600609084   -0.5300
      2 C2        -12.2643   -2.2958   57.3289 C.2     1  ZINC000600609084    0.5200
      3 C3        -11.3576   -3.2304   58.0877 C.3     1  ZINC000600609084   -0.1500
      4 C4        -10.6597   -2.4628   59.2122 C.3     1  ZINC000600609084    0.1300
      5 N5         -9.6243   -1.5967   58.6429 N.am    1  ZINC000600609084   -1.1200
      6 S6         -8.2957   -1.1916   59.5446 S.o2    1  ZINC000600609084    2.7000
      7 O7         -7.7316   -2.4139   59.9996 O.2     1  ZINC000600609084   -0.9600
      8 O8         -7.5697   -0.2366   58.7827 O.2     1  ZINC000600609084   -0.9500
      9 C9         -8.8758   -0.3472   60.9781 C.ar    1  ZINC000600609084   -0.6700
     10 C10        -9.8947    0.5951   60.8543 C.ar    1  ZINC000600609084   -0.0400
     11 C11       -10.3658    1.2650   61.9415 C.ar    1  ZINC000600609084   -0.1200
     12 C12        -9.8188    1.0047   63.2092 C.ar    1  ZINC000600609084   -0.0100
     13 C13       -10.2795    1.6758   64.3549 C.ar    1  ZINC000600609084   -0.1200
     14 C14        -9.7260    1.3975   65.5666 C.ar    1  ZINC000600609084   -0.0900
     15 C15        -8.7067    0.4548   65.6906 C.ar    1  ZINC000600609084   -0.1200
     16 C16        -8.2353   -0.2145   64.6035 C.ar    1  ZINC000600609084   -0.0900
     17 C17        -8.7823    0.0460   63.3353 C.ar    1  ZINC000600609084   -0.0800
     18 C18        -8.3259   -0.6294   62.1910 C.ar    1  ZINC000600609084    0.0200
     19 N19       -13.5501   -2.1505   57.7058 N.am    1  ZINC000600609084   -0.7200
     20 C20       -14.4313   -1.2421   56.9681 C.3     1  ZINC000600609084    0.1400
     21 H21       -13.8973   -0.3256   56.7177 H       1  ZINC000600609084    0.1000
     22 C22       -14.9372   -1.9247   55.6851 C.3     1  ZINC000600609084   -0.1300
     23 C23       -16.4745   -1.9872   55.7959 C.3     1  ZINC000600609084   -0.1300
     24 C24       -16.7488   -1.9186   57.3187 C.3     1  ZINC000600609084   -0.1200
     25 C25       -15.6785   -0.9127   57.8142 C.3     1  ZINC000600609084   -0.0700
     26 H26       -16.0042    0.1115   57.6321 H       1  ZINC000600609084    0.0900
     27 C27       -15.3961   -1.1222   59.2797 C.ar    1  ZINC000600609084   -0.0600
     28 C28       -15.2281   -2.4017   59.7752 C.ar    1  ZINC000600609084   -0.1100
     29 C29       -14.9692   -2.5938   61.1194 C.ar    1  ZINC000600609084   -0.1200
     30 C30       -14.8778   -1.5063   61.9680 C.ar    1  ZINC000600609084   -0.1200
     31 C31       -15.0450   -0.2268   61.4723 C.ar    1  ZINC000600609084   -0.1200
     32 C32       -15.2996   -0.0345   60.1273 C.ar    1  ZINC000600609084   -0.1100
     33 H33       -11.9469   -4.0424   58.5135 H       1  ZINC000600609084    0.1000
     34 H34       -10.6096   -3.6412   57.4095 H       1  ZINC000600609084    0.1000
     35 H35       -11.3904   -1.8538   59.7445 H       1  ZINC000600609084    0.0900
     36 H36       -10.2020   -3.1692   59.9048 H       1  ZINC000600609084    0.0800
     37 H37        -9.7170   -1.2605   57.7377 H       1  ZINC000600609084    0.4200
     38 H38       -10.3166    0.7974   59.8809 H       1  ZINC000600609084    0.1400
     39 H39       -11.1558    1.9931   61.8303 H       1  ZINC000600609084    0.1400
     40 H40       -11.0684    2.4091   64.2741 H       1  ZINC000600609084    0.1300
     41 H41       -10.0816    1.9149   66.4453 H       1  ZINC000600609084    0.1300
     42 H42        -8.2845    0.2530   66.6638 H       1  ZINC000600609084    0.1300
     43 H43        -7.4448   -0.9420   64.7146 H       1  ZINC000600609084    0.1300
     44 H44        -7.5400   -1.3657   62.2726 H       1  ZINC000600609084    0.1500
     45 H45       -13.8918   -2.6474   58.4655 H       1  ZINC000600609084    0.4000
     46 H46       -14.6492   -1.3389   54.8122 H       1  ZINC000600609084    0.0800
     47 H47       -14.5268   -2.9318   55.6113 H       1  ZINC000600609084    0.0700
     48 H48       -16.9286   -1.1364   55.2879 H       1  ZINC000600609084    0.0700
     49 H49       -16.8490   -2.9238   55.3826 H       1  ZINC000600609084    0.0700
     50 H50       -17.7527   -1.5416   57.5139 H       1  ZINC000600609084    0.0700
     51 H51       -16.6049   -2.8950   57.7815 H       1  ZINC000600609084    0.0700
     52 H52       -15.2995   -3.2511   59.1122 H       1  ZINC000600609084    0.1200
     53 H53       -14.8387   -3.5934   61.5067 H       1  ZINC000600609084    0.1200
     54 H54       -14.6764   -1.6565   63.0184 H       1  ZINC000600609084    0.1200
     55 H55       -14.9740    0.6227   62.1354 H       1  ZINC000600609084    0.1200
     56 H56       -15.4303    0.9652   59.7401 H       1  ZINC000600609084    0.1200
@<TRIPOS>BOND
     1     1     2    2
     2     2     3    1
     3     2    19   am
     4     3     4    1
     5     3    33    1
     6     3    34    1
     7     4     5    1
     8     4    35    1
     9     4    36    1
    10     5     6   am
    11     5    37    1
    12     6     7    2
    13     6     8    2
    14     6     9    1
    15     9    18   ar
    16     9    10   ar
    17    10    11   ar
    18    10    38    1
    19    11    12   ar
    20    11    39    1
    21    12    17   ar
    22    12    13   ar
    23    13    14   ar
    24    13    40    1
    25    14    15   ar
    26    14    41    1
    27    15    16   ar
    28    15    42    1
    29    16    17   ar
    30    16    43    1
    31    17    18   ar
    32    18    44    1
    33    19    20    1
    34    19    45    1
    35    20    21    1
    36    20    25    1
    37    20    22    1
    38    22    23    1
    39    22    46    1
    40    22    47    1
    41    23    24    1
    42    23    48    1
    43    23    49    1
    44    24    25    1
    45    24    50    1
    46    24    51    1
    47    25    26    1
    48    25    27    1
    49    27    32   ar
    50    27    28   ar
    51    28    29   ar
    52    28    52    1
    53    29    30   ar
    54    29    53    1
    55    30    31   ar
    56    30    54    1
    57    31    32   ar
    58    31    55    1
    59    32    56    1
@<TRIPOS>SUBSTRUCTURE
     1 ZINC000600609084        1 TEMP              0 ****  ****    0 ROOT


##########                                Name:    ZINC000547864253
##########                DOCK_Rotatable_Bonds:                   6
##########                         Heavy_Atoms:                  30
##########                    Molecular_Weight:             422.548
##########                DOCK_Rotatable_Bonds:                   6
##########                       Formal_Charge:           0.0300002
##########                     HBond_Acceptors:                   6
##########                        HBond_Donors:                   2
##########                         Heavy_Atoms:                  30
##########                          Grid_Score:          -30.569984
##########                     Grid_vdw_energy:          -29.518410
##########                      Grid_es_energy:           -1.051574
##########           Internal_energy_repulsive:           21.343424

@<TRIPOS>MOLECULE
ZINC000547864253
 56 60 1 0 0
SMALL
USER_CHARGES


@<TRIPOS>ATOM
      1 O1         -8.2132    2.8521   57.1013 O.2     1  ZINC000547864253   -0.5300
      2 C2         -7.8015    1.7749   56.7260 C.2     1  ZINC000547864253    0.5400
      3 N3         -7.7969    0.7239   57.5699 N.am    1  ZINC000547864253   -0.7200
      4 C4         -8.2835    0.8846   58.9424 C.3     1  ZINC000547864253    0.1300
      5 C5         -8.4021   -0.4892   59.6055 C.3     1  ZINC000547864253    0.0200
      6 H6         -7.4302   -0.9826   59.5952 H       1  ZINC000547864253    0.0900
      7 C7         -8.8651   -0.3212   61.0297 C.2     1  ZINC000547864253   -0.1600
      8 C8         -8.2119   -0.7172   62.1335 C.2     1  ZINC000547864253    0.0600
      9 N9         -8.9396   -0.3958   63.2469 N.pl3   1  ZINC000547864253   -0.5900
     10 C10       -10.1087    0.2308   62.8772 C.ar    1  ZINC000547864253    0.1000
     11 C11       -11.1827    0.7524   63.5906 C.ar    1  ZINC000547864253   -0.1300
     12 C12       -12.2347    1.3332   62.9163 C.ar    1  ZINC000547864253   -0.1000
     13 C13       -12.2344    1.4039   61.5303 C.ar    1  ZINC000547864253   -0.1400
     14 C14       -11.1894    0.8979   60.8095 C.ar    1  ZINC000547864253   -0.0700
     15 C15       -10.1103    0.3107   61.4724 C.ar    1  ZINC000547864253   -0.1000
     16 C16        -9.3994   -1.3279   58.8487 C.ar    1  ZINC000547864253   -0.0700
     17 C17       -10.3337   -0.7206   58.0307 C.ar    1  ZINC000547864253   -0.1100
     18 C18       -11.2486   -1.4900   57.3364 C.ar    1  ZINC000547864253   -0.1200
     19 C19       -11.2289   -2.8667   57.4599 C.ar    1  ZINC000547864253   -0.1200
     20 C20       -10.2939   -3.4741   58.2771 C.ar    1  ZINC000547864253   -0.1100
     21 C21        -9.3763   -2.7049   58.9680 C.ar    1  ZINC000547864253   -0.1200
     22 C22        -7.3010    1.6096   55.3142 C.3     1  ZINC000547864253   -0.1700
     23 H23        -6.2312    1.4261   55.2132 H       1  ZINC000547864253    0.1400
     24 C24        -7.9819    2.4365   54.2220 C.3     1  ZINC000547864253   -0.1300
     25 C25        -8.2331    0.9282   54.3088 C.3     1  ZINC000547864253   -0.1400
     26 C26        -7.5884    0.0450   53.2398 C.3     1  ZINC000547864253   -0.0700
     27 C27        -8.4379    0.0714   51.9674 C.3     1  ZINC000547864253   -0.6000
     28 S28       -10.0933   -0.5739   52.3410 S.o2    1  ZINC000547864253    2.4200
     29 O29       -10.9307   -0.3558   51.2139 O.2     1  ZINC000547864253   -0.9400
     30 O30        -9.9607   -1.8885   52.8640 O.2     1  ZINC000547864253   -0.9300
     31 C31       -10.6219    0.5336   53.6791 C.3     1  ZINC000547864253   -0.6000
     32 C32        -9.6010    0.4709   54.8173 C.3     1  ZINC000547864253   -0.0700
     33 H33        -7.4714   -0.1386   57.2686 H       1  ZINC000547864253    0.4000
     34 H34        -7.5836    1.5011   59.5062 H       1  ZINC000547864253    0.0800
     35 H35        -9.2613    1.3662   58.9272 H       1  ZINC000547864253    0.0700
     36 H36        -7.2540   -1.2160   62.1418 H       1  ZINC000547864253    0.1700
     37 H37        -8.6719   -0.5817   64.1605 H       1  ZINC000547864253    0.4200
     38 H38       -11.1923    0.7018   64.6694 H       1  ZINC000547864253    0.1200
     39 H39       -13.0679    1.7372   63.4721 H       1  ZINC000547864253    0.1300
     40 H40       -13.0670    1.8622   61.0172 H       1  ZINC000547864253    0.1200
     41 H41       -11.1961    0.9564   59.7311 H       1  ZINC000547864253    0.1200
     42 H42       -10.3492    0.3550   57.9343 H       1  ZINC000547864253    0.1200
     43 H43       -11.9791   -1.0155   56.6979 H       1  ZINC000547864253    0.1200
     44 H44       -11.9441   -3.4678   56.9180 H       1  ZINC000547864253    0.1200
     45 H45       -10.2787   -4.5496   58.3738 H       1  ZINC000547864253    0.1200
     46 H46        -8.6459   -3.1794   59.6065 H       1  ZINC000547864253    0.1200
     47 H47        -8.7921    3.1001   54.5246 H       1  ZINC000547864253    0.1100
     48 H48        -7.3603    2.7968   53.4023 H       1  ZINC000547864253    0.1100
     49 H49        -6.5886    0.4174   53.0162 H       1  ZINC000547864253    0.0900
     50 H50        -7.5192   -0.9785   53.6084 H       1  ZINC000547864253    0.0900
     51 H51        -8.5198    1.0963   51.6056 H       1  ZINC000547864253    0.1400
     52 H52        -7.9691   -0.5489   51.2035 H       1  ZINC000547864253    0.1400
     53 H53       -10.6856    1.5547   53.3029 H       1  ZINC000547864253    0.1400
     54 H54       -11.5982    0.2191   54.0479 H       1  ZINC000547864253    0.1400
     55 H55        -9.5281   -0.5534   55.1829 H       1  ZINC000547864253    0.0900
     56 H56        -9.9227    1.1231   55.6292 H       1  ZINC000547864253    0.0900
@<TRIPOS>BOND
     1     1     2    2
     2     2     3   am
     3     2    22    1
     4     3     4    1
     5     3    33    1
     6     4     5    1
     7     4    34    1
     8     4    35    1
     9     5     6    1
    10     5     7    1
    11     5    16    1
    12     7    15    1
    13     7     8    2
    14     8     9    1
    15     8    36    1
    16     9    10    1
    17     9    37    1
    18    10    15   ar
    19    10    11   ar
    20    11    12   ar
    21    11    38    1
    22    12    13   ar
    23    12    39    1
    24    13    14   ar
    25    13    40    1
    26    14    15   ar
    27    14    41    1
    28    16    21   ar
    29    16    17   ar
    30    17    18   ar
    31    17    42    1
    32    18    19   ar
    33    18    43    1
    34    19    20   ar
    35    19    44    1
    36    20    21   ar
    37    20    45    1
    38    21    46    1
    39    22    23    1
    40    22    25    1
    41    22    24    1
    42    24    25    1
    43    24    47    1
    44    24    48    1
    45    25    32    1
    46    25    26    1
    47    26    27    1
    48    26    49    1
    49    26    50    1
    50    27    28    1
    51    27    51    1
    52    27    52    1
    53    28    29    2
    54    28    30    2
    55    28    31    1
    56    31    32    1
    57    31    53    1
    58    31    54    1
    59    32    55    1
    60    32    56    1
@<TRIPOS>SUBSTRUCTURE
     1 ZINC000547864253        1 TEMP              0 ****  ****    0 ROOT


##########                                Name:    ZINC000898967786
##########                DOCK_Rotatable_Bonds:                   5
##########                         Heavy_Atoms:                  25
##########                    Molecular_Weight:             356.448
##########                DOCK_Rotatable_Bonds:                   5
##########                       Formal_Charge:        -2.38419e-07
##########                     HBond_Acceptors:                   7
##########                        HBond_Donors:                   1
##########                         Heavy_Atoms:                  25
##########                          Grid_Score:          -30.568857
##########                     Grid_vdw_energy:          -30.599276
##########                      Grid_es_energy:            0.030418
##########           Internal_energy_repulsive:           10.237138

@<TRIPOS>MOLECULE
ZINC000898967786
 45 48 1 0 0
SMALL
USER_CHARGES


@<TRIPOS>ATOM
      1 C1         -1.7847    2.7743   52.4638 C.3     1  ZINC000898967786   -0.0800
      2 C2         -1.6221    2.0368   51.1596 C.2     1  ZINC000898967786    0.0900
      3 C3         -2.5827    1.8681   50.2246 C.2     1  ZINC000898967786   -0.1000
      4 C4         -3.9989    2.3782   50.2950 C.3     1  ZINC000898967786    0.2200
      5 N5         -4.8801    1.3086   50.7702 N.am    1  ZINC000898967786   -0.7400
      6 C6         -5.5986    1.4785   51.8979 C.2     1  ZINC000898967786    0.7100
      7 O7         -5.5155    2.5195   52.5205 O.2     1  ZINC000898967786   -0.5800
      8 N8         -6.4093    0.4945   52.3350 N.am    1  ZINC000898967786   -0.6300
      9 C9         -6.5263   -0.7738   51.5982 C.3     1  ZINC000898967786    0.0900
     10 C10        -8.0143   -1.0715   51.3813 C.3     1  ZINC000898967786    0.0500
     11 O11        -8.6963   -1.0007   52.6357 O.3     1  ZINC000898967786   -0.3700
     12 C12        -8.6583    0.2893   53.2506 C.3     1  ZINC000898967786    0.1400
     13 H13        -9.0825    1.0289   52.5716 H       1  ZINC000898967786    0.0700
     14 C14        -9.4572    0.2618   54.5281 C.2     1  ZINC000898967786   -0.1100
     15 C15        -9.5713   -0.8344   55.2794 C.2     1  ZINC000898967786   -0.1800
     16 S16       -10.5734   -0.4862   56.6823 S.3     1  ZINC000898967786    0.1100
     17 C17       -10.7874    1.1777   56.1539 C.2     1  ZINC000898967786   -0.2100
     18 C18       -10.1234    1.3738   55.0137 C.2     1  ZINC000898967786   -0.1300
     19 C19        -7.1989    0.6545   53.5664 C.3     1  ZINC000898967786    0.0900
     20 N20        -2.0287    1.1479   49.2015 N.pl3   1  ZINC000898967786   -0.3500
     21 C21        -2.5287    0.6937   48.0155 C.2     1  ZINC000898967786    0.0600
     22 C22        -1.7513   -0.0104   47.1666 C.2     1  ZINC000898967786   -0.1400
     23 C23        -0.4134   -0.2862   47.4939 C.2     1  ZINC000898967786   -0.1000
     24 C24         0.0977    0.1604   48.6727 C.2     1  ZINC000898967786   -0.0800
     25 C25        -0.7269    0.8949   49.5485 C.2     1  ZINC000898967786    0.2400
     26 N26        -0.5034    1.4461   50.7331 N.2     1  ZINC000898967786   -0.4900
     27 H27        -1.5369    3.8259   52.3197 H       1  ZINC000898967786    0.0800
     28 H28        -2.8165    2.6874   52.8041 H       1  ZINC000898967786    0.0700
     29 H29        -1.1182    2.3429   53.2106 H       1  ZINC000898967786    0.0800
     30 H30        -4.0475    3.2218   50.9835 H       1  ZINC000898967786    0.1000
     31 H31        -4.3192    2.6992   49.3038 H       1  ZINC000898967786    0.0700
     32 H32        -4.9463    0.4781   50.2734 H       1  ZINC000898967786    0.4000
     33 H33        -6.0251   -0.6860   50.6343 H       1  ZINC000898967786    0.1100
     34 H34        -6.0716   -1.5778   52.1770 H       1  ZINC000898967786    0.0800
     35 H35        -8.4363   -0.3368   50.6955 H       1  ZINC000898967786    0.0600
     36 H36        -8.1282   -2.0707   50.9607 H       1  ZINC000898967786    0.1100
     37 H37        -9.1181   -1.7897   55.0598 H       1  ZINC000898967786    0.1700
     38 H38       -11.3641    1.9273   56.6753 H       1  ZINC000898967786    0.1700
     39 H39       -10.1131    2.3257   54.5038 H       1  ZINC000898967786    0.1400
     40 H40        -6.8150   -0.0064   54.3435 H       1  ZINC000898967786    0.0800
     41 H41        -7.1442    1.6895   53.9039 H       1  ZINC000898967786    0.0900
     42 H42        -3.5563    0.8997   47.7543 H       1  ZINC000898967786    0.1600
     43 H43        -2.1596   -0.3638   46.2312 H       1  ZINC000898967786    0.1500
     44 H44         0.2065   -0.8507   46.8130 H       1  ZINC000898967786    0.1500
     45 H45         1.1248   -0.0460   48.9351 H       1  ZINC000898967786    0.1500
@<TRIPOS>BOND
     1     1     2    1
     2     1    27    1
     3     1    28    1
     4     1    29    1
     5     2    26    1
     6     2     3    2
     7     3     4    1
     8     3    20    1
     9     4     5    1
    10     4    30    1
    11     4    31    1
    12     5     6   am
    13     5    32    1
    14     6     7    2
    15     6     8   am
    16     8    19    1
    17     8     9    1
    18     9    10    1
    19     9    33    1
    20     9    34    1
    21    10    11    1
    22    10    35    1
    23    10    36    1
    24    11    12    1
    25    12    13    1
    26    12    14    1
    27    12    19    1
    28    14    18    1
    29    14    15    2
    30    15    16    1
    31    15    37    1
    32    16    17    1
    33    17    18    2
    34    17    38    1
    35    18    39    1
    36    19    40    1
    37    19    41    1
    38    20    25    1
    39    20    21    1
    40    21    22    2
    41    21    42    1
    42    22    23    1
    43    22    43    1
    44    23    24    2
    45    23    44    1
    46    24    25    1
    47    24    45    1
    48    25    26    2
@<TRIPOS>SUBSTRUCTURE
     1 ZINC000898967786        1 TEMP              0 ****  ****    0 ROOT


##########                                Name:    ZINC000466160459
##########                DOCK_Rotatable_Bonds:                   9
##########                         Heavy_Atoms:                  30
##########                    Molecular_Weight:             420.512
##########                DOCK_Rotatable_Bonds:                   9
##########                       Formal_Charge:          -0.0300007
##########                     HBond_Acceptors:                  10
##########                        HBond_Donors:                   2
##########                         Heavy_Atoms:                  30
##########                          Grid_Score:          -30.562088
##########                     Grid_vdw_energy:          -30.957825
##########                      Grid_es_energy:            0.395736
##########           Internal_energy_repulsive:          103.886192

@<TRIPOS>MOLECULE
ZINC000466160459
 62 64 1 0 0
SMALL
USER_CHARGES


@<TRIPOS>ATOM
      1 C1        -10.2118   -2.2640   55.5503 C.3     1  ZINC000466160459    0.0300
      2 O2        -10.4629   -3.5579   56.1026 O.3     1  ZINC000466160459   -0.3900
      3 C3        -11.0843   -3.5302   57.3891 C.3     1  ZINC000466160459    0.0500
      4 C4        -12.4320   -2.8126   57.2892 C.3     1  ZINC000466160459    0.1200
      5 N5        -13.0744   -2.7948   58.6056 N.am    1  ZINC000466160459   -0.7300
      6 C6        -14.4188   -2.8069   58.6997 C.2     1  ZINC000466160459    0.5200
      7 O7        -15.0968   -2.8340   57.6943 O.2     1  ZINC000466160459   -0.5200
      8 C8        -15.0798   -2.7868   60.0538 C.3     1  ZINC000466160459   -0.1300
      9 H9        -15.1157   -3.7992   60.4562 H       1  ZINC000466160459    0.1100
     10 C10       -16.5027   -2.2396   59.9197 C.3     1  ZINC000466160459   -0.1000
     11 C11       -16.4553   -0.8310   59.3235 C.3     1  ZINC000466160459   -0.1500
     12 C12       -15.6695    0.0903   60.2620 C.3     1  ZINC000466160459    0.1600
     13 H13       -16.2069    0.1961   61.2043 H       1  ZINC000466160459    0.0700
     14 C14       -15.5018    1.4642   59.6100 C.3     1  ZINC000466160459   -0.1400
     15 N15       -14.3492   -0.5040   60.5117 N.am    1  ZINC000466160459   -0.6200
     16 C16       -13.2245    0.2068   60.2969 C.2     1  ZINC000466160459    0.7100
     17 O17       -13.2965    1.3512   59.8927 O.2     1  ZINC000466160459   -0.5500
     18 N18       -12.0200   -0.3509   60.5302 N.am    1  ZINC000466160459   -0.7300
     19 C19       -10.7974    0.4218   60.2968 C.3     1  ZINC000466160459    0.1600
     20 H20       -11.0554    1.3805   59.8470 H       1  ZINC000466160459    0.1300
     21 C21        -9.8789   -0.3538   59.3492 C.3     1  ZINC000466160459   -0.1400
     22 C22        -9.3086   -1.5595   60.1058 C.3     1  ZINC000466160459   -0.1400
     23 C23        -8.3685   -1.0513   61.1996 C.3     1  ZINC000466160459    0.1100
     24 N24        -9.0252   -0.0261   62.0009 N.am    1  ZINC000466160459   -0.5200
     25 C25        -8.4943    0.2588   63.2663 C.2     1  ZINC000466160459    0.2800
     26 N26        -8.4745   -0.5556   64.2951 N.2     1  ZINC000466160459   -0.2600
     27 N27        -7.8596    0.1072   65.3650 N.pl3   1  ZINC000466160459   -0.3800
     28 C28        -7.6332   -0.4443   66.7032 C.3     1  ZINC000466160459    0.1000
     29 C29        -7.5115    1.3425   64.9472 C.2     1  ZINC000466160459    0.0700
     30 C30        -7.8853    1.4633   63.6531 C.2     1  ZINC000466160459   -0.2900
     31 C31       -10.0982    0.6565   61.6050 C.2     1  ZINC000466160459    0.4900
     32 O32       -10.5352    1.5162   62.3406 O.2     1  ZINC000466160459   -0.4700
     33 C33       -14.2779   -1.8884   61.0008 C.3     1  ZINC000466160459    0.1200
     34 H34        -9.7392   -2.3712   54.5740 H       1  ZINC000466160459    0.0900
     35 H35       -11.1538   -1.7267   55.4410 H       1  ZINC000466160459    0.0400
     36 H36        -9.5510   -1.7074   56.2148 H       1  ZINC000466160459    0.0400
     37 H37       -11.2410   -4.5504   57.7390 H       1  ZINC000466160459    0.0600
     38 H38       -10.4415   -2.9997   58.0916 H       1  ZINC000466160459    0.0700
     39 H39       -12.2744   -1.7894   56.9480 H       1  ZINC000466160459    0.0800
     40 H40       -13.0715   -3.3377   56.5799 H       1  ZINC000466160459    0.0800
     41 H41       -12.5322   -2.7744   59.4098 H       1  ZINC000466160459    0.4000
     42 H42       -17.0822   -2.8914   59.2659 H       1  ZINC000466160459    0.0700
     43 H43       -16.9715   -2.2023   60.9030 H       1  ZINC000466160459    0.0700
     44 H44       -15.9643   -0.8639   58.3508 H       1  ZINC000466160459    0.1000
     45 H45       -17.4702   -0.4511   59.2065 H       1  ZINC000466160459    0.0700
     46 H46       -16.4796    1.8535   59.3264 H       1  ZINC000466160459    0.0400
     47 H47       -15.0302    2.1467   60.3171 H       1  ZINC000466160459    0.0800
     48 H48       -14.8762    1.3712   58.7223 H       1  ZINC000466160459    0.0600
     49 H49       -11.9625   -1.2639   60.8529 H       1  ZINC000466160459    0.3900
     50 H50       -10.4486   -0.6982   58.4861 H       1  ZINC000466160459    0.0900
     51 H51        -9.0644    0.2906   59.0185 H       1  ZINC000466160459    0.0900
     52 H52       -10.1228   -2.1262   60.5577 H       1  ZINC000466160459    0.0700
     53 H53        -8.7558   -2.1964   59.4154 H       1  ZINC000466160459    0.1000
     54 H54        -8.0817   -1.8828   61.8432 H       1  ZINC000466160459    0.0900
     55 H55        -7.4743   -0.6309   60.7394 H       1  ZINC000466160459    0.0800
     56 H56        -6.6633   -0.9409   66.7323 H       1  ZINC000466160459    0.0700
     57 H57        -7.6506    0.3622   67.4363 H       1  ZINC000466160459    0.0900
     58 H58        -8.4173   -1.1645   66.9368 H       1  ZINC000466160459    0.0900
     59 H59        -7.0183    2.0987   65.5399 H       1  ZINC000466160459    0.1800
     60 H60        -7.7468    2.3345   63.0300 H       1  ZINC000466160459    0.1500
     61 H61       -14.7017   -1.9439   62.0036 H       1  ZINC000466160459    0.0900
     62 H62       -13.2383   -2.2152   61.0226 H       1  ZINC000466160459    0.0700
@<TRIPOS>BOND
     1     1     2    1
     2     1    34    1
     3     1    35    1
     4     1    36    1
     5     2     3    1
     6     3     4    1
     7     3    37    1
     8     3    38    1
     9     4     5    1
    10     4    39    1
    11     4    40    1
    12     5     6   am
    13     5    41    1
    14     6     7    2
    15     6     8    1
    16     8     9    1
    17     8    33    1
    18     8    10    1
    19    10    11    1
    20    10    42    1
    21    10    43    1
    22    11    12    1
    23    11    44    1
    24    11    45    1
    25    12    13    1
    26    12    14    1
    27    12    15    1
    28    14    46    1
    29    14    47    1
    30    14    48    1
    31    15    16   am
    32    15    33    1
    33    16    17    2
    34    16    18   am
    35    18    19    1
    36    18    49    1
    37    19    20    1
    38    19    31    1
    39    19    21    1
    40    21    22    1
    41    21    50    1
    42    21    51    1
    43    22    23    1
    44    22    52    1
    45    22    53    1
    46    23    24    1
    47    23    54    1
    48    23    55    1
    49    24    25    1
    50    24    31   am
    51    25    30    1
    52    25    26    2
    53    26    27    1
    54    27    28    1
    55    27    29    1
    56    28    56    1
    57    28    57    1
    58    28    58    1
    59    29    30    2
    60    29    59    1
    61    30    60    1
    62    31    32    2
    63    33    61    1
    64    33    62    1
@<TRIPOS>SUBSTRUCTURE
     1 ZINC000466160459        1 TEMP              0 ****  ****    0 ROOT


##########                                Name:    ZINC000892389374
##########                DOCK_Rotatable_Bonds:                   6
##########                         Heavy_Atoms:                  25
##########                    Molecular_Weight:             371.383
##########                DOCK_Rotatable_Bonds:                   6
##########                       Formal_Charge:          -0.0199998
##########                     HBond_Acceptors:                   9
##########                        HBond_Donors:                   1
##########                         Heavy_Atoms:                  25
##########                          Grid_Score:          -30.552755
##########                     Grid_vdw_energy:          -29.014725
##########                      Grid_es_energy:           -1.538030
##########           Internal_energy_repulsive:           13.078670

@<TRIPOS>MOLECULE
ZINC000892389374
 41 43 1 0 0
SMALL
USER_CHARGES


@<TRIPOS>ATOM
      1 C1         -1.6168    2.8219   52.0193 C.3     1  ZINC000892389374   -0.1000
      2 C2         -1.6770    2.1869   50.6539 C.ar    1  ZINC000892389374   -0.1800
      3 C3         -2.7577    2.4277   49.8280 C.ar    1  ZINC000892389374   -0.0400
      4 C4         -2.8163    1.8477   48.5752 C.ar    1  ZINC000892389374   -0.2100
      5 C5         -1.7884    1.0198   48.1425 C.ar    1  ZINC000892389374    0.2200
      6 N6         -1.8488    0.4328   46.8735 N.am    1  ZINC000892389374   -0.5700
      7 C7         -2.0716    1.1503   45.6088 C.3     1  ZINC000892389374    0.0600
      8 C8         -2.0446    0.0360   44.5450 C.3     1  ZINC000892389374    0.0400
      9 O9         -1.8119   -1.1798   45.3135 O.3     1  ZINC000892389374   -0.3200
     10 C10        -1.7073   -0.8738   46.6117 C.2     1  ZINC000892389374    0.6400
     11 O11        -1.5107   -1.7056   47.4753 O.2     1  ZINC000892389374   -0.5000
     12 C12        -0.7013    0.7757   48.9694 C.ar    1  ZINC000892389374   -0.2300
     13 C13        -0.6423    1.3641   50.2247 C.ar    1  ZINC000892389374    0.2400
     14 N14         0.4501    1.1210   51.0602 N.pl3   1  ZINC000892389374   -0.7400
     15 C15         1.6895    0.5721   50.5045 C.3     1  ZINC000892389374    0.2000
     16 C16         2.8242    0.8216   51.4643 C.2     1  ZINC000892389374   -0.2400
     17 C17         3.8711    0.0169   51.6704 C.2     1  ZINC000892389374    0.0600
     18 N18         4.7324    0.4587   52.5645 N.2     1  ZINC000892389374   -0.4500
     19 C19         4.4704    1.5914   53.1242 C.2     1  ZINC000892389374    0.0200
     20 C20         5.3312    2.2583   54.1660 C.3     1  ZINC000892389374   -0.0900
     21 C21         4.4502    3.0940   55.0967 C.3     1  ZINC000892389374    0.4600
     22 F22         5.2491    3.7122   56.0646 F       1  ZINC000892389374   -0.1800
     23 F23         3.7800    4.0705   54.3522 F       1  ZINC000892389374   -0.1800
     24 F24         3.5158    2.2634   55.7246 F       1  ZINC000892389374   -0.1700
     25 S25         3.0090    2.2295   52.5075 S.3     1  ZINC000892389374    0.1900
     26 H26        -1.1204    3.7897   51.9484 H       1  ZINC000892389374    0.0700
     27 H27        -2.6285    2.9597   52.4009 H       1  ZINC000892389374    0.0700
     28 H28        -1.0579    2.1757   52.6962 H       1  ZINC000892389374    0.0600
     29 H29        -3.5587    3.0704   50.1623 H       1  ZINC000892389374    0.1300
     30 H30        -3.6627    2.0379   47.9318 H       1  ZINC000892389374    0.1200
     31 H31        -3.0411    1.6484   45.6170 H       1  ZINC000892389374    0.1000
     32 H32        -1.2721    1.8693   45.4307 H       1  ZINC000892389374    0.1000
     33 H33        -3.0005   -0.0183   44.0241 H       1  ZINC000892389374    0.1100
     34 H34        -1.2320    0.2024   43.8378 H       1  ZINC000892389374    0.1100
     35 H35         0.0991    0.1321   48.6352 H       1  ZINC000892389374    0.1600
     36 H36         0.3883    1.3157   52.0086 H       1  ZINC000892389374    0.4000
     37 H37         1.5742   -0.5006   50.3493 H       1  ZINC000892389374    0.0900
     38 H38         1.9063    1.0559   49.5521 H       1  ZINC000892389374    0.0800
     39 H39         4.0006   -0.9189   51.1469 H       1  ZINC000892389374    0.1800
     40 H40         5.8540    1.4979   54.7463 H       1  ZINC000892389374    0.1300
     41 H41         6.0588    2.9055   53.6763 H       1  ZINC000892389374    0.1400
@<TRIPOS>BOND
     1     1     2    1
     2     1    26    1
     3     1    27    1
     4     1    28    1
     5     2    13   ar
     6     2     3   ar
     7     3     4   ar
     8     3    29    1
     9     4     5   ar
    10     4    30    1
    11     5     6    1
    12     5    12   ar
    13     6    10   am
    14     6     7    1
    15     7     8    1
    16     7    31    1
    17     7    32    1
    18     8     9    1
    19     8    33    1
    20     8    34    1
    21     9    10    1
    22    10    11    2
    23    12    13   ar
    24    12    35    1
    25    13    14    1
    26    14    15    1
    27    14    36    1
    28    15    16    1
    29    15    37    1
    30    15    38    1
    31    16    25    1
    32    16    17    2
    33    17    18    1
    34    17    39    1
    35    18    19    2
    36    19    20    1
    37    19    25    1
    38    20    21    1
    39    20    40    1
    40    20    41    1
    41    21    22    1
    42    21    23    1
    43    21    24    1
@<TRIPOS>SUBSTRUCTURE
     1 ZINC000892389374        1 TEMP              0 ****  ****    0 ROOT


##########                                Name:    ZINC000481050680
##########                DOCK_Rotatable_Bonds:                   7
##########                         Heavy_Atoms:                  29
##########                    Molecular_Weight:              412.46
##########                DOCK_Rotatable_Bonds:                   7
##########                       Formal_Charge:          -0.0199997
##########                     HBond_Acceptors:                   7
##########                        HBond_Donors:                   1
##########                         Heavy_Atoms:                  29
##########                          Grid_Score:          -30.535597
##########                     Grid_vdw_energy:          -28.697624
##########                      Grid_es_energy:           -1.837973
##########           Internal_energy_repulsive:           11.434963

@<TRIPOS>MOLECULE
ZINC000481050680
 47 49 1 0 0
SMALL
USER_CHARGES


@<TRIPOS>ATOM
      1 N1         -6.1960   -0.1985   51.7633 N.1     1  ZINC000481050680   -0.3900
      2 C2         -6.7799   -0.0495   52.7263 C.1     1  ZINC000481050680    0.2500
      3 C3         -7.5161    0.1382   53.9402 C.ar    1  ZINC000481050680    0.0200
      4 C4         -7.2802    1.2604   54.7365 C.ar    1  ZINC000481050680   -0.0800
      5 C5         -7.9927    1.4366   55.9049 C.ar    1  ZINC000481050680   -0.0800
      6 C6         -8.9396    0.5048   56.2891 C.ar    1  ZINC000481050680   -0.1000
      7 C7         -9.7136    0.7044   57.5666 C.3     1  ZINC000481050680   -0.5900
      8 S8         -8.6222    0.4156   58.9864 S.o2    1  ZINC000481050680    2.6000
      9 O9         -7.2867    0.1975   58.5526 O.2     1  ZINC000481050680   -0.9300
     10 O10        -8.9121    1.3323   60.0328 O.2     1  ZINC000481050680   -0.9400
     11 N11        -9.1021   -1.0521   59.5847 N.am    1  ZINC000481050680   -1.1100
     12 C12       -10.4777   -1.2379   60.0530 C.3     1  ZINC000481050680    0.2100
     13 H13       -11.0166   -0.2932   59.9813 H       1  ZINC000481050680    0.1000
     14 C14       -10.4616   -1.7066   61.5095 C.3     1  ZINC000481050680   -0.0800
     15 C15        -9.7855   -0.6661   62.3645 C.ar    1  ZINC000481050680   -0.0900
     16 C16        -8.4219   -0.7300   62.5820 C.ar    1  ZINC000481050680   -0.1200
     17 C17        -7.8016    0.2244   63.3664 C.ar    1  ZINC000481050680   -0.1200
     18 C18        -8.5450    1.2429   63.9330 C.ar    1  ZINC000481050680   -0.1200
     19 C19        -9.9085    1.3072   63.7148 C.ar    1  ZINC000481050680   -0.1200
     20 C20       -10.5280    0.3553   62.9269 C.ar    1  ZINC000481050680   -0.1200
     21 C21       -11.1634   -2.2734   59.1996 C.ar    1  ZINC000481050680   -0.1300
     22 C22       -10.4410   -3.3323   58.6835 C.ar    1  ZINC000481050680   -0.0700
     23 C23       -11.0699   -4.2825   57.9004 C.ar    1  ZINC000481050680   -0.1300
     24 C24       -12.4215   -4.1743   57.6325 C.ar    1  ZINC000481050680   -0.0900
     25 C25       -13.1461   -3.1158   58.1471 C.ar    1  ZINC000481050680   -0.1500
     26 C26       -12.5189   -2.1673   58.9369 C.ar    1  ZINC000481050680    0.1100
     27 F27       -13.2261   -1.1323   59.4406 F       1  ZINC000481050680   -0.1400
     28 C28        -9.1801   -0.6118   55.5039 C.ar    1  ZINC000481050680    0.1200
     29 F29       -10.1069   -1.5177   55.8852 F       1  ZINC000481050680   -0.1200
     30 C30        -8.4768   -0.7973   54.3293 C.ar    1  ZINC000481050680   -0.1000
     31 H31        -6.5410    1.9894   54.4387 H       1  ZINC000481050680    0.1500
     32 H32        -7.8101    2.3045   56.5213 H       1  ZINC000481050680    0.1500
     33 H33       -10.0962    1.7244   57.6040 H       1  ZINC000481050680    0.1500
     34 H34       -10.5468    0.0024   57.6000 H       1  ZINC000481050680    0.1500
     35 H35        -8.4723   -1.7888   59.6249 H       1  ZINC000481050680    0.4200
     36 H36       -11.4849   -1.8522   61.8555 H       1  ZINC000481050680    0.0900
     37 H37        -9.9161   -2.6473   61.5823 H       1  ZINC000481050680    0.0900
     38 H38        -7.8411   -1.5257   62.1394 H       1  ZINC000481050680    0.1200
     39 H39        -6.7363    0.1742   63.5369 H       1  ZINC000481050680    0.1200
     40 H40        -8.0605    1.9882   64.5464 H       1  ZINC000481050680    0.1200
     41 H41       -10.4893    2.1028   64.1578 H       1  ZINC000481050680    0.1200
     42 H42       -11.5933    0.4056   62.7564 H       1  ZINC000481050680    0.1200
     43 H43        -9.3846   -3.4174   58.8917 H       1  ZINC000481050680    0.1300
     44 H44       -10.5044   -5.1098   57.4975 H       1  ZINC000481050680    0.1300
     45 H45       -12.9117   -4.9170   57.0203 H       1  ZINC000481050680    0.1300
     46 H46       -14.2021   -3.0311   57.9371 H       1  ZINC000481050680    0.1400
     47 H47        -8.6644   -1.6671   53.7173 H       1  ZINC000481050680    0.1600
@<TRIPOS>BOND
     1     1     2    3
     2     2     3    1
     3     3    30   ar
     4     3     4   ar
     5     4     5   ar
     6     4    31    1
     7     5     6   ar
     8     5    32    1
     9     6     7    1
    10     6    28   ar
    11     7     8    1
    12     7    33    1
    13     7    34    1
    14     8     9    2
    15     8    10    2
    16     8    11   am
    17    11    12    1
    18    11    35    1
    19    12    13    1
    20    12    14    1
    21    12    21    1
    22    14    15    1
    23    14    36    1
    24    14    37    1
    25    15    20   ar
    26    15    16   ar
    27    16    17   ar
    28    16    38    1
    29    17    18   ar
    30    17    39    1
    31    18    19   ar
    32    18    40    1
    33    19    20   ar
    34    19    41    1
    35    20    42    1
    36    21    26   ar
    37    21    22   ar
    38    22    23   ar
    39    22    43    1
    40    23    24   ar
    41    23    44    1
    42    24    25   ar
    43    24    45    1
    44    25    26   ar
    45    25    46    1
    46    26    27    1
    47    28    29    1
    48    28    30   ar
    49    30    47    1
@<TRIPOS>SUBSTRUCTURE
     1 ZINC000481050680        1 TEMP              0 ****  ****    0 ROOT


##########                                Name:    ZINC001579482641
##########                DOCK_Rotatable_Bonds:                   5
##########                         Heavy_Atoms:                  26
##########                    Molecular_Weight:             355.359
##########                DOCK_Rotatable_Bonds:                   5
##########                       Formal_Charge:                0.05
##########                     HBond_Acceptors:                  11
##########                        HBond_Donors:                   1
##########                         Heavy_Atoms:                  26
##########                          Grid_Score:          -30.528954
##########                     Grid_vdw_energy:          -26.653765
##########                      Grid_es_energy:           -3.875188
##########           Internal_energy_repulsive:           15.516938

@<TRIPOS>MOLECULE
ZINC001579482641
 43 46 1 0 0
SMALL
USER_CHARGES


@<TRIPOS>ATOM
      1 C1         -3.5940    4.8777   53.9928 C.3     1  ZINC001579482641    0.0300
      2 O2         -3.0780    4.0800   52.8947 O.3     1  ZINC001579482641   -0.3300
      3 C3         -3.2836    4.5491   51.6486 C.2     1  ZINC001579482641    0.5300
      4 O4         -3.8519    5.6103   51.4851 O.2     1  ZINC001579482641   -0.4900
      5 C5         -2.8181    3.7730   50.4809 C.ar    1  ZINC001579482641    0.0900
      6 C6         -3.2990    4.0871   49.2086 C.ar    1  ZINC001579482641   -0.0800
      7 C7         -2.8600    3.3575   48.1188 C.ar    1  ZINC001579482641   -0.1200
      8 C8         -1.9469    2.3276   48.3320 C.ar    1  ZINC001579482641    0.1100
      9 N9         -1.4796    1.5701   47.2667 N.3     1  ZINC001579482641   -0.4600
     10 C10        -2.5917    0.8455   46.6002 C.3     1  ZINC001579482641    0.0400
     11 C11        -2.0128    0.5169   45.2012 C.3     1  ZINC001579482641   -0.1100
     12 C12        -1.1827    1.7773   44.8658 C.3     1  ZINC001579482641   -0.0100
     13 H13        -1.7617    2.4560   44.2396 H       1  ZINC001579482641    0.0900
     14 C14         0.0979    1.3907   44.1719 C.2     1  ZINC001579482641    0.1800
     15 N15         1.3076    1.7002   44.5521 N.2     1  ZINC001579482641   -0.2600
     16 N16         2.1606    1.2053   43.7269 N.2     1  ZINC001579482641   -0.2900
     17 C17         1.5340    0.5577   42.7827 C.2     1  ZINC001579482641    0.1500
     18 N18         0.2073    0.6526   43.0410 N.pl3   1  ZINC001579482641   -0.4800
     19 C19        -0.8872    0.0806   42.2528 C.3     1  ZINC001579482641    0.0700
     20 C20        -0.8794    2.4328   46.2259 C.3     1  ZINC001579482641    0.0600
     21 C21        -1.5048    2.0660   49.6400 C.ar    1  ZINC001579482641    0.2300
     22 C22        -0.5323    0.9722   49.8827 C.2     1  ZINC001579482641    0.2100
     23 N23         0.4458    0.9697   50.7668 N.2     1  ZINC001579482641   -0.2600
     24 N24         1.0628   -0.1575   50.6688 N.pl3   1  ZINC001579482641   -0.2300
     25 N25         0.5073   -0.8691   49.7512 N.2     1  ZINC001579482641   -0.0500
     26 N26        -0.4806   -0.2086   49.2495 N.2     1  ZINC001579482641   -0.2000
     27 N27        -1.9434    2.7889   50.6545 N.ar    1  ZINC001579482641   -0.4000
     28 H28        -4.6747    4.9783   53.8924 H       1  ZINC001579482641    0.0700
     29 H29        -3.3610    4.3881   54.9384 H       1  ZINC001579482641    0.1100
     30 H30        -3.1337    5.8655   53.9720 H       1  ZINC001579482641    0.0700
     31 H31        -4.0071    4.8919   49.0767 H       1  ZINC001579482641    0.1600
     32 H32        -3.2177    3.5811   47.1245 H       1  ZINC001579482641    0.1600
     33 H33        -2.8336   -0.0694   47.1411 H       1  ZINC001579482641    0.1000
     34 H34        -3.4698    1.4854   46.5128 H       1  ZINC001579482641    0.0600
     35 H35        -1.3740   -0.3652   45.2455 H       1  ZINC001579482641    0.1000
     36 H36        -2.8139    0.3783   44.4752 H       1  ZINC001579482641    0.0800
     37 H37         1.9888    0.0389   41.9518 H       1  ZINC001579482641    0.2200
     38 H38        -1.1110   -0.9224   42.6161 H       1  ZINC001579482641    0.0800
     39 H39        -1.7726    0.7086   42.3510 H       1  ZINC001579482641    0.0900
     40 H40        -0.5922    0.0299   41.2046 H       1  ZINC001579482641    0.0900
     41 H41        -1.3238    3.4272   46.2662 H       1  ZINC001579482641    0.0600
     42 H42         0.1984    2.4985   46.3743 H       1  ZINC001579482641    0.1000
     43 H43         1.8265   -0.4272   51.2027 H       1  ZINC001579482641    0.4800
@<TRIPOS>BOND
     1     1     2    1
     2     1    28    1
     3     1    29    1
     4     1    30    1
     5     2     3    1
     6     3     4    2
     7     3     5    1
     8     5    27   ar
     9     5     6   ar
    10     6     7   ar
    11     6    31    1
    12     7     8   ar
    13     7    32    1
    14     8     9    1
    15     8    21   ar
    16     9    20    1
    17     9    10    1
    18    10    11    1
    19    10    33    1
    20    10    34    1
    21    11    12    1
    22    11    35    1
    23    11    36    1
    24    12    13    1
    25    12    14    1
    26    12    20    1
    27    14    18    1
    28    14    15    2
    29    15    16    1
    30    16    17    2
    31    17    18    1
    32    17    37    1
    33    18    19    1
    34    19    38    1
    35    19    39    1
    36    19    40    1
    37    20    41    1
    38    20    42    1
    39    21    22    1
    40    21    27   ar
    41    22    26    1
    42    22    23    2
    43    23    24    1
    44    24    25    1
    45    24    43    1
    46    25    26    2
@<TRIPOS>SUBSTRUCTURE
     1 ZINC001579482641        1 TEMP              0 ****  ****    0 ROOT


##########                                Name:    ZINC000123469372
##########                DOCK_Rotatable_Bonds:                   7
##########                         Heavy_Atoms:                  25
##########                    Molecular_Weight:             341.382
##########                DOCK_Rotatable_Bonds:                   7
##########                       Formal_Charge:          -0.0300001
##########                     HBond_Acceptors:                   5
##########                        HBond_Donors:                   2
##########                         Heavy_Atoms:                  25
##########                          Grid_Score:          -30.504635
##########                     Grid_vdw_energy:          -30.686728
##########                      Grid_es_energy:            0.182093
##########           Internal_energy_repulsive:            6.416787

@<TRIPOS>MOLECULE
ZINC000123469372
 45 47 1 0 0
SMALL
USER_CHARGES


@<TRIPOS>ATOM
      1 C1         -0.6512    2.5560   48.4537 C.3     1  ZINC000123469372   -0.1700
      2 C2         -1.3788    1.2216   48.6297 C.3     1  ZINC000123469372    0.1500
      3 H3         -2.0112    1.0354   47.7616 H       1  ZINC000123469372    0.0900
      4 C4         -0.3525    0.0950   48.7640 C.3     1  ZINC000123469372   -0.1600
      5 C5         -0.5319   -0.8981   47.6141 C.3     1  ZINC000123469372    0.1500
      6 H6         -1.5690   -1.2317   47.5806 H       1  ZINC000123469372    0.1100
      7 O7          0.3243   -2.0238   47.8187 O.3     1  ZINC000123469372   -0.5500
      8 C8         -0.1775   -0.2278   46.3116 C.ar    1  ZINC000123469372   -0.1200
      9 C9         -1.1424   -0.0587   45.3363 C.ar    1  ZINC000123469372   -0.1100
     10 C10        -0.8173    0.5561   44.1416 C.ar    1  ZINC000123469372   -0.1200
     11 C11         0.4726    1.0022   43.9224 C.ar    1  ZINC000123469372   -0.1200
     12 C12         1.4372    0.8340   44.8981 C.ar    1  ZINC000123469372   -0.1200
     13 C13         1.1112    0.2230   46.0945 C.ar    1  ZINC000123469372   -0.1100
     14 N14        -2.2083    1.2731   49.8361 N.am    1  ZINC000123469372   -0.7100
     15 C15        -3.4676    1.7482   49.7683 C.2     1  ZINC000123469372    0.5700
     16 O16        -3.9155    2.1358   48.7049 O.2     1  ZINC000123469372   -0.5400
     17 C17        -4.2963    1.7979   50.9723 C.2     1  ZINC000123469372   -0.2200
     18 C18        -5.3353    0.9394   51.1198 C.2     1  ZINC000123469372    0.0000
     19 C19        -6.1481    1.0466   52.3414 C.ar    1  ZINC000123469372   -0.1200
     20 C20        -7.0073    0.0222   52.7361 C.ar    1  ZINC000123469372   -0.0900
     21 C21        -7.7524    0.1662   53.8909 C.ar    1  ZINC000123469372    0.0700
     22 F22        -8.5870   -0.8222   54.2803 F       1  ZINC000123469372   -0.1400
     23 C23        -7.6468    1.3207   54.6525 C.ar    1  ZINC000123469372   -0.1100
     24 C24        -6.7974    2.3422   54.2685 C.ar    1  ZINC000123469372   -0.1200
     25 C25        -6.0438    2.2153   53.1158 C.ar    1  ZINC000123469372    0.1300
     26 O26        -5.2024    3.1995   52.7126 O.3     1  ZINC000123469372   -0.3000
     27 C27        -3.9953    2.7993   52.0569 C.3     1  ZINC000123469372    0.1100
     28 H28        -0.0340    2.5177   47.5560 H       1  ZINC000123469372    0.0700
     29 H29        -1.3824    3.3586   48.3580 H       1  ZINC000123469372    0.0600
     30 H30        -0.0188    2.7423   49.3217 H       1  ZINC000123469372    0.0600
     31 H31         0.6533    0.5135   48.7291 H       1  ZINC000123469372    0.0900
     32 H32        -0.4993   -0.4189   49.7140 H       1  ZINC000123469372    0.0800
     33 H33         1.2256   -1.7901   48.0797 H       1  ZINC000123469372    0.3700
     34 H34        -2.1501   -0.4073   45.5076 H       1  ZINC000123469372    0.1200
     35 H35        -1.5711    0.6875   43.3794 H       1  ZINC000123469372    0.1200
     36 H36         0.7267    1.4819   42.9888 H       1  ZINC000123469372    0.1200
     37 H37         2.4451    1.1824   44.7267 H       1  ZINC000123469372    0.1200
     38 H38         1.8648    0.0916   46.8568 H       1  ZINC000123469372    0.1200
     39 H39        -1.8510    0.9654   50.6838 H       1  ZINC000123469372    0.4000
     40 H40        -5.5594    0.2007   50.3645 H       1  ZINC000123469372    0.1500
     41 H41        -7.0903   -0.8770   52.1435 H       1  ZINC000123469372    0.1500
     42 H42        -8.2336    1.4230   55.5533 H       1  ZINC000123469372    0.1500
     43 H43        -6.7226    3.2376   54.8677 H       1  ZINC000123469372    0.1500
     44 H44        -3.3183    2.3564   52.7873 H       1  ZINC000123469372    0.0800
     45 H45        -3.5195    3.6737   51.6129 H       1  ZINC000123469372    0.1100
@<TRIPOS>BOND
     1     1     2    1
     2     1    28    1
     3     1    29    1
     4     1    30    1
     5     2     3    1
     6     2     4    1
     7     2    14    1
     8     4     5    1
     9     4    31    1
    10     4    32    1
    11     5     6    1
    12     5     7    1
    13     5     8    1
    14     7    33    1
    15     8    13   ar
    16     8     9   ar
    17     9    10   ar
    18     9    34    1
    19    10    11   ar
    20    10    35    1
    21    11    12   ar
    22    11    36    1
    23    12    13   ar
    24    12    37    1
    25    13    38    1
    26    14    15   am
    27    14    39    1
    28    15    16    2
    29    15    17    1
    30    17    27    1
    31    17    18    2
    32    18    19    1
    33    18    40    1
    34    19    25   ar
    35    19    20   ar
    36    20    21   ar
    37    20    41    1
    38    21    22    1
    39    21    23   ar
    40    23    24   ar
    41    23    42    1
    42    24    25   ar
    43    24    43    1
    44    25    26    1
    45    26    27    1
    46    27    44    1
    47    27    45    1
@<TRIPOS>SUBSTRUCTURE
     1 ZINC000123469372        1 TEMP              0 ****  ****    0 ROOT


##########                                Name:    ZINC000549659617
##########                DOCK_Rotatable_Bonds:                   9
##########                         Heavy_Atoms:                  28
##########                    Molecular_Weight:              418.48
##########                DOCK_Rotatable_Bonds:                   9
##########                       Formal_Charge:          0.00999956
##########                     HBond_Acceptors:                   9
##########                        HBond_Donors:                   1
##########                         Heavy_Atoms:                  28
##########                          Grid_Score:          -30.489405
##########                     Grid_vdw_energy:          -30.496157
##########                      Grid_es_energy:            0.006752
##########           Internal_energy_repulsive:           28.170668

@<TRIPOS>MOLECULE
ZINC000549659617
 53 55 1 0 0
SMALL
USER_CHARGES


@<TRIPOS>ATOM
      1 C1        -12.0172    3.7595   53.8993 C.3     1  ZINC000549659617   -0.1500
      2 C2        -11.2189    2.6672   53.1846 C.3     1  ZINC000549659617   -0.1500
      3 C3        -10.0393    2.2416   54.0611 C.3     1  ZINC000549659617    0.1100
      4 N4         -9.5870    0.9079   53.6571 N.am    1  ZINC000549659617   -0.6100
      5 C5        -10.1666   -0.1886   54.1845 C.2     1  ZINC000549659617    0.7100
      6 O6         -9.7923   -1.2954   53.8481 O.2     1  ZINC000549659617   -0.5700
      7 N7        -11.1611   -0.0583   55.0848 N.am    1  ZINC000549659617   -0.7400
      8 C8        -11.7922   -1.2503   55.6568 C.3     1  ZINC000549659617    0.2300
      9 H9        -11.8321   -2.0372   54.9036 H       1  ZINC000549659617    0.1100
     10 C10       -10.9875   -1.7266   56.8386 C.ar    1  ZINC000549659617   -0.0900
     11 C11       -10.9248   -3.0755   57.1335 C.ar    1  ZINC000549659617   -0.0800
     12 C12       -10.1866   -3.5125   58.2177 C.ar    1  ZINC000549659617   -0.1100
     13 C13        -9.5109   -2.6005   59.0064 C.ar    1  ZINC000549659617   -0.0700
     14 C14        -9.5728   -1.2513   58.7109 C.ar    1  ZINC000549659617   -0.1800
     15 C15        -8.8365   -0.2569   59.5711 C.3     1  ZINC000549659617    0.5100
     16 F16        -7.5598   -0.0383   59.0424 F       1  ZINC000549659617   -0.1800
     17 F17        -9.5433    0.9502   59.5977 F       1  ZINC000549659617   -0.1700
     18 F18        -8.7228   -0.7595   60.8718 F       1  ZINC000549659617   -0.1700
     19 C19       -10.3073   -0.8148   57.6245 C.ar    1  ZINC000549659617   -0.0500
     20 C20       -13.2121   -0.9070   56.1116 C.3     1  ZINC000549659617   -0.1700
     21 C21       -14.3567   -1.2086   55.1422 C.3     1  ZINC000549659617   -0.1700
     22 C22       -14.1651   -2.0708   56.3915 C.3     1  ZINC000549659617   -0.1800
     23 C23        -8.5048    0.7663   52.6798 C.3     1  ZINC000549659617    0.1700
     24 H24        -8.1387    1.7492   52.3837 H       1  ZINC000549659617    0.1100
     25 C25        -9.0070   -0.0029   51.4454 C.3     1  ZINC000549659617   -0.1400
     26 C26        -7.7903   -0.4321   50.6016 C.3     1  ZINC000549659617   -0.5900
     27 S27        -6.4159   -0.5965   51.7974 S.o2    1  ZINC000549659617    2.3900
     28 O28        -6.0620   -1.9671   51.9225 O.2     1  ZINC000549659617   -0.9300
     29 O29        -5.4157    0.3684   51.5009 O.2     1  ZINC000549659617   -0.9400
     30 C30        -7.3488   -0.0707   53.2853 C.3     1  ZINC000549659617   -0.6100
     31 H31       -12.8576    4.0628   53.2749 H       1  ZINC000549659617    0.0600
     32 H32       -12.3900    3.3748   54.8485 H       1  ZINC000549659617    0.0600
     33 H33       -11.3727    4.6189   54.0835 H       1  ZINC000549659617    0.0600
     34 H34       -11.8634    1.8077   53.0004 H       1  ZINC000549659617    0.0700
     35 H35       -10.8460    3.0519   52.2354 H       1  ZINC000549659617    0.0700
     36 H36        -9.2227    2.9537   53.9423 H       1  ZINC000549659617    0.0800
     37 H37       -10.3521    2.2183   55.1051 H       1  ZINC000549659617    0.0900
     38 H38       -11.4588    0.8247   55.3541 H       1  ZINC000549659617    0.4000
     39 H39       -11.4528   -3.7880   56.5172 H       1  ZINC000549659617    0.1300
     40 H40       -10.1382   -4.5664   58.4485 H       1  ZINC000549659617    0.1400
     41 H41        -8.9348   -2.9418   59.8537 H       1  ZINC000549659617    0.1400
     42 H42       -10.3557    0.2390   57.3936 H       1  ZINC000549659617    0.1400
     43 H43       -13.3035   -0.0199   56.7383 H       1  ZINC000549659617    0.1100
     44 H44       -15.2014   -0.5196   55.1309 H       1  ZINC000549659617    0.0900
     45 H45       -14.0982   -1.6515   54.1804 H       1  ZINC000549659617    0.0900
     46 H46       -13.7803   -3.0810   56.2515 H       1  ZINC000549659617    0.1200
     47 H47       -14.8835   -1.9493   57.2020 H       1  ZINC000549659617    0.0900
     48 H48        -9.5616   -0.8855   51.7641 H       1  ZINC000549659617    0.1100
     49 H49        -9.6561    0.6407   50.8515 H       1  ZINC000549659617    0.0900
     50 H50        -7.9851   -1.3879   50.1151 H       1  ZINC000549659617    0.1400
     51 H51        -7.5565    0.3308   49.8590 H       1  ZINC000549659617    0.1400
     52 H52        -6.7254    0.5424   53.9362 H       1  ZINC000549659617    0.1400
     53 H53        -7.7383   -0.9351   53.8231 H       1  ZINC000549659617    0.1600
@<TRIPOS>BOND
     1     1     2    1
     2     1    31    1
     3     1    32    1
     4     1    33    1
     5     2     3    1
     6     2    34    1
     7     2    35    1
     8     3     4    1
     9     3    36    1
    10     3    37    1
    11     4     5   am
    12     4    23    1
    13     5     6    2
    14     5     7   am
    15     7     8    1
    16     7    38    1
    17     8     9    1
    18     8    10    1
    19     8    20    1
    20    10    19   ar
    21    10    11   ar
    22    11    12   ar
    23    11    39    1
    24    12    13   ar
    25    12    40    1
    26    13    14   ar
    27    13    41    1
    28    14    15    1
    29    14    19   ar
    30    15    16    1
    31    15    17    1
    32    15    18    1
    33    19    42    1
    34    20    22    1
    35    20    21    1
    36    20    43    1
    37    21    22    1
    38    21    44    1
    39    21    45    1
    40    22    46    1
    41    22    47    1
    42    23    24    1
    43    23    30    1
    44    23    25    1
    45    25    26    1
    46    25    48    1
    47    25    49    1
    48    26    27    1
    49    26    50    1
    50    26    51    1
    51    27    28    2
    52    27    29    2
    53    27    30    1
    54    30    52    1
    55    30    53    1
@<TRIPOS>SUBSTRUCTURE
     1 ZINC000549659617        1 TEMP              0 ****  ****    0 ROOT


##########                                Name:    ZINC001344051361
##########                DOCK_Rotatable_Bonds:                   8
##########                         Heavy_Atoms:                  28
##########                    Molecular_Weight:             379.456
##########                DOCK_Rotatable_Bonds:                   8
##########                       Formal_Charge:          -0.0100006
##########                     HBond_Acceptors:                   5
##########                        HBond_Donors:                   0
##########                         Heavy_Atoms:                  28
##########                          Grid_Score:          -30.484621
##########                     Grid_vdw_energy:          -31.203943
##########                      Grid_es_energy:            0.719322
##########           Internal_energy_repulsive:           20.840965

@<TRIPOS>MOLECULE
ZINC001344051361
 53 56 1 0 0
SMALL
USER_CHARGES


@<TRIPOS>ATOM
      1 O1         -5.5436    2.3926   52.7300 O.2     1  ZINC001344051361   -0.4800
      2 C2         -5.5943    1.4565   51.9677 C.2     1  ZINC001344051361    0.4800
      3 O3         -4.8867    1.4804   50.8274 O.3     1  ZINC001344051361   -0.3500
      4 C4         -3.9491    2.5759   50.6562 C.3     1  ZINC001344051361    0.0700
      5 C5         -3.3694    2.5346   49.2408 C.3     1  ZINC001344051361   -0.1000
      6 H6         -4.1575    2.2797   48.5322 H       1  ZINC001344051361    0.0900
      7 C7         -2.7880    3.9052   48.8869 C.3     1  ZINC001344051361   -0.1200
      8 C8         -2.2373    3.8744   47.4594 C.3     1  ZINC001344051361   -0.1300
      9 C9         -1.1148    2.8357   47.3717 C.3     1  ZINC001344051361    0.0800
     10 N10        -1.6274    1.5440   47.8488 N.am    1  ZINC001344051361   -0.6100
     11 C11        -1.5191    0.4382   47.0859 C.2     1  ZINC001344051361    0.5600
     12 O12        -1.9472   -0.6245   47.4919 O.2     1  ZINC001344051361   -0.5300
     13 C13        -0.8797    0.5178   45.7552 C.ar    1  ZINC001344051361   -0.1300
     14 C14        -1.6611    0.4856   44.5991 C.ar    1  ZINC001344051361   -0.1000
     15 C15        -1.0583    0.5607   43.3605 C.ar    1  ZINC001344051361   -0.1300
     16 C16         0.3177    0.6672   43.2628 C.ar    1  ZINC001344051361   -0.0900
     17 C17         1.0981    0.6991   44.4048 C.ar    1  ZINC001344051361   -0.1300
     18 C18         0.5074    0.6311   45.6497 C.ar    1  ZINC001344051361   -0.0600
     19 C19        -2.2603    1.4801   49.1732 C.3     1  ZINC001344051361    0.1200
     20 C20        -6.4471    0.2594   52.3003 C.3     1  ZINC001344051361    0.0200
     21 O21        -6.8805    0.1698   53.6591 O.3     1  ZINC001344051361   -0.2500
     22 C22        -7.8458    1.0394   54.0575 C.ar    1  ZINC001344051361    0.1200
     23 C23        -8.4222    1.9057   53.1398 C.ar    1  ZINC001344051361   -0.2000
     24 C24        -9.4037    2.7885   53.5471 C.ar    1  ZINC001344051361   -0.0800
     25 C25        -9.8114    2.8094   54.8682 C.ar    1  ZINC001344051361   -0.1500
     26 C26        -9.2382    1.9473   55.7847 C.ar    1  ZINC001344051361   -0.0800
     27 C27        -8.2608    1.0584   55.3811 C.ar    1  ZINC001344051361   -0.1400
     28 C28        -7.4019   -0.2503   51.2189 C.3     1  ZINC001344051361   -0.1700
     29 C29        -6.1445   -1.0492   51.5677 C.3     1  ZINC001344051361   -0.1100
     30 H30        -4.4655    3.5234   50.8099 H       1  ZINC001344051361    0.0800
     31 H31        -3.1420    2.4800   51.3824 H       1  ZINC001344051361    0.0800
     32 H32        -3.5702    4.6610   48.9581 H       1  ZINC001344051361    0.0700
     33 H33        -1.9838    4.1488   49.5811 H       1  ZINC001344051361    0.0700
     34 H34        -3.0356    3.6066   46.7671 H       1  ZINC001344051361    0.0700
     35 H35        -1.8444    4.8574   47.1997 H       1  ZINC001344051361    0.0800
     36 H36        -0.7865    2.7388   46.3368 H       1  ZINC001344051361    0.1100
     37 H37        -0.2773    3.1492   47.9950 H       1  ZINC001344051361    0.0700
     38 H38        -2.7352    0.4018   44.6740 H       1  ZINC001344051361    0.1400
     39 H39        -1.6617    0.5360   42.4651 H       1  ZINC001344051361    0.1300
     40 H40         0.7848    0.7253   42.2907 H       1  ZINC001344051361    0.1300
     41 H41         2.1717    0.7820   44.3216 H       1  ZINC001344051361    0.1300
     42 H42         1.1177    0.6564   46.5404 H       1  ZINC001344051361    0.1300
     43 H43        -1.5166    1.6831   49.9437 H       1  ZINC001344051361    0.0700
     44 H44        -2.6874    0.4890   49.3266 H       1  ZINC001344051361    0.1000
     45 H45        -8.1036    1.8903   52.1080 H       1  ZINC001344051361    0.1300
     46 H46        -9.8527    3.4631   52.8332 H       1  ZINC001344051361    0.1300
     47 H47       -10.5786    3.5005   55.1848 H       1  ZINC001344051361    0.1300
     48 H48        -9.5581    1.9658   56.8161 H       1  ZINC001344051361    0.1300
     49 H49        -7.8133    0.3852   56.0974 H       1  ZINC001344051361    0.1300
     50 H50        -8.3608   -0.6540   51.5436 H       1  ZINC001344051361    0.1200
     51 H51        -7.4131    0.2803   50.2668 H       1  ZINC001344051361    0.1200
     52 H52        -5.3285   -1.0443   50.8450 H       1  ZINC001344051361    0.1200
     53 H53        -6.2763   -1.9785   52.1219 H       1  ZINC001344051361    0.1200
@<TRIPOS>BOND
     1     1     2    2
     2     2     3    1
     3     2    20    1
     4     3     4    1
     5     4     5    1
     6     4    30    1
     7     4    31    1
     8     5     6    1
     9     5    19    1
    10     5     7    1
    11     7     8    1
    12     7    32    1
    13     7    33    1
    14     8     9    1
    15     8    34    1
    16     8    35    1
    17     9    10    1
    18     9    36    1
    19     9    37    1
    20    10    11   am
    21    10    19    1
    22    11    12    2
    23    11    13    1
    24    13    18   ar
    25    13    14   ar
    26    14    15   ar
    27    14    38    1
    28    15    16   ar
    29    15    39    1
    30    16    17   ar
    31    16    40    1
    32    17    18   ar
    33    17    41    1
    34    18    42    1
    35    19    43    1
    36    19    44    1
    37    20    29    1
    38    20    21    1
    39    20    28    1
    40    21    22    1
    41    22    27   ar
    42    22    23   ar
    43    23    24   ar
    44    23    45    1
    45    24    25   ar
    46    24    46    1
    47    25    26   ar
    48    25    47    1
    49    26    27   ar
    50    26    48    1
    51    27    49    1
    52    28    29    1
    53    28    50    1
    54    28    51    1
    55    29    52    1
    56    29    53    1
@<TRIPOS>SUBSTRUCTURE
     1 ZINC001344051361        1 TEMP              0 ****  ****    0 ROOT


##########                                Name:    ZINC000995593866
##########                DOCK_Rotatable_Bonds:                   7
##########                         Heavy_Atoms:                  24
##########                    Molecular_Weight:             342.389
##########                DOCK_Rotatable_Bonds:                   7
##########                       Formal_Charge:                0.03
##########                     HBond_Acceptors:                   8
##########                        HBond_Donors:                   1
##########                         Heavy_Atoms:                  24
##########                          Grid_Score:          -30.484539
##########                     Grid_vdw_energy:          -28.997679
##########                      Grid_es_energy:           -1.486860
##########           Internal_energy_repulsive:           10.671933

@<TRIPOS>MOLECULE
ZINC000995593866
 48 50 1 0 0
SMALL
USER_CHARGES


@<TRIPOS>ATOM
      1 C1          1.4460    0.2394   47.3556 C.3     1  ZINC000995593866   -0.1400
      2 C2          0.2962   -0.1665   48.2798 C.3     1  ZINC000995593866   -0.0800
      3 C3         -0.4395   -1.3810   47.7100 C.3     1  ZINC000995593866   -0.1400
      4 C4          0.8288   -0.4745   49.6958 C.3     1  ZINC000995593866    0.1200
      5 N5          0.6545    0.7919   50.4444 N.am    1  ZINC000995593866   -0.6300
      6 C6          1.4952    1.3445   51.3413 C.2     1  ZINC000995593866    0.5400
      7 O7          1.2088    2.3963   51.8730 O.2     1  ZINC000995593866   -0.5300
      8 C8          2.7910    0.6555   51.6835 C.3     1  ZINC000995593866   -0.1300
      9 C9          3.5662    1.5009   52.6961 C.3     1  ZINC000995593866   -0.1000
     10 C10         5.0333    1.0709   52.8626 C.3     1  ZINC000995593866   -0.1300
     11 C11         5.3824    2.5672   52.9271 C.3     1  ZINC000995593866   -0.1400
     12 C12         4.1011    2.8206   52.1155 C.3     1  ZINC000995593866   -0.1400
     13 C13        -0.6533    1.3131   49.9835 C.3     1  ZINC000995593866    0.1100
     14 C14        -0.6811    1.0122   48.4694 C.3     1  ZINC000995593866    0.0800
     15 H15        -0.3421    1.8803   47.9043 H       1  ZINC000995593866    0.0700
     16 N16        -2.0355    0.6280   48.0499 N.3     1  ZINC000995593866   -0.6800
     17 C17        -2.9047    1.8065   47.9336 C.3     1  ZINC000995593866    0.1500
     18 C18        -2.5567    2.5656   46.6791 C.2     1  ZINC000995593866    0.1900
     19 N19        -1.8921    3.6937   46.6080 N.2     1  ZINC000995593866   -0.4300
     20 C20        -1.8230    3.9913   45.2982 C.2     1  ZINC000995593866    0.0900
     21 C21        -1.1549    5.1983   44.6918 C.3     1  ZINC000995593866    0.3800
     22 F22        -1.2151    6.2665   45.5932 F       1  ZINC000995593866   -0.1800
     23 F23         0.1828    4.8994   44.4116 F       1  ZINC000995593866   -0.1700
     24 N24        -2.4377    3.0465   44.6516 N.2     1  ZINC000995593866   -0.3400
     25 O25        -2.8615    2.2146   45.4261 O.3     1  ZINC000995593866    0.1000
     26 H26         1.9841    1.0804   47.7929 H       1  ZINC000995593866    0.0600
     27 H27         2.1269   -0.6026   47.2315 H       1  ZINC000995593866    0.0600
     28 H28         1.0461    0.5295   46.3840 H       1  ZINC000995593866    0.0600
     29 H29         0.2577   -2.2124   47.6063 H       1  ZINC000995593866    0.0700
     30 H30        -1.2471   -1.6660   48.3844 H       1  ZINC000995593866    0.0700
     31 H31        -0.8533   -1.1298   46.7333 H       1  ZINC000995593866    0.0600
     32 H32         0.2453   -1.2717   50.1563 H       1  ZINC000995593866    0.0800
     33 H33         1.8828   -0.7493   49.6539 H       1  ZINC000995593866    0.0900
     34 H34         2.5793   -0.3234   52.1139 H       1  ZINC000995593866    0.0900
     35 H35         3.3876    0.5336   50.7795 H       1  ZINC000995593866    0.0900
     36 H36         3.0356    1.6225   53.6403 H       1  ZINC000995593866    0.1000
     37 H37         5.2288    0.5365   53.7923 H       1  ZINC000995593866    0.0700
     38 H38         5.4419    0.5645   51.9881 H       1  ZINC000995593866    0.0800
     39 H39         5.3495    2.9801   53.9353 H       1  ZINC000995593866    0.0800
     40 H40         6.2963    2.8258   52.3923 H       1  ZINC000995593866    0.0700
     41 H41         4.2548    2.7926   51.0368 H       1  ZINC000995593866    0.0800
     42 H42         3.5440    3.6988   52.4420 H       1  ZINC000995593866    0.0700
     43 H43        -1.4684    0.7952   50.4890 H       1  ZINC000995593866    0.0900
     44 H44        -0.7176    2.3870   50.1588 H       1  ZINC000995593866    0.0800
     45 H45        -2.0125    0.1088   47.1851 H       1  ZINC000995593866    0.3600
     46 H46        -3.9458    1.4871   47.8880 H       1  ZINC000995593866    0.1200
     47 H47        -2.7602    2.4514   48.8004 H       1  ZINC000995593866    0.0800
     48 H48        -1.6669    5.4720   43.7693 H       1  ZINC000995593866    0.1500
@<TRIPOS>BOND
     1     1     2    1
     2     1    26    1
     3     1    27    1
     4     1    28    1
     5     2    14    1
     6     2     3    1
     7     2     4    1
     8     3    29    1
     9     3    30    1
    10     3    31    1
    11     4     5    1
    12     4    32    1
    13     4    33    1
    14     5     6   am
    15     5    13    1
    16     6     7    2
    17     6     8    1
    18     8     9    1
    19     8    34    1
    20     8    35    1
    21     9    12    1
    22     9    10    1
    23     9    36    1
    24    10    11    1
    25    10    37    1
    26    10    38    1
    27    11    12    1
    28    11    39    1
    29    11    40    1
    30    12    41    1
    31    12    42    1
    32    13    14    1
    33    13    43    1
    34    13    44    1
    35    14    15    1
    36    14    16    1
    37    16    17    1
    38    16    45    1
    39    17    18    1
    40    17    46    1
    41    17    47    1
    42    18    25    1
    43    18    19    2
    44    19    20    1
    45    20    21    1
    46    20    24    2
    47    21    22    1
    48    21    23    1
    49    21    48    1
    50    24    25    1
@<TRIPOS>SUBSTRUCTURE
     1 ZINC000995593866        1 TEMP              0 ****  ****    0 ROOT


##########                                Name:    ZINC000006915700
##########                DOCK_Rotatable_Bonds:                   5
##########                         Heavy_Atoms:                  26
##########                    Molecular_Weight:             369.447
##########                DOCK_Rotatable_Bonds:                   5
##########                       Formal_Charge:        -1.04308e-07
##########                     HBond_Acceptors:                   8
##########                        HBond_Donors:                   1
##########                         Heavy_Atoms:                  26
##########                          Grid_Score:          -30.483957
##########                     Grid_vdw_energy:          -27.747311
##########                      Grid_es_energy:           -2.736647
##########           Internal_energy_repulsive:            5.860184

@<TRIPOS>MOLECULE
ZINC000006915700
 45 48 1 0 0
SMALL
USER_CHARGES


@<TRIPOS>ATOM
      1 C1          4.0722    2.2441   41.9985 C.3     1  <0>        -0.1200
      2 C2          3.7575    1.9687   43.4463 C.ar    1  <0>        -0.0500
      3 C3          2.4413    1.9400   43.8717 C.ar    1  <0>        -0.1300
      4 C4          2.1467    1.6879   45.1959 C.ar    1  <0>        -0.0600
      5 C5          3.1793    1.4619   46.1063 C.ar    1  <0>        -0.0700
      6 C6          2.8699    1.1903   47.5289 C.2     1  <0>         0.4400
      7 N7          3.5171    1.8573   48.4755 N.2     1  <0>        -0.5200
      8 C8          3.2483    1.6232   49.7636 C.2     1  <0>         0.3600
      9 C9          3.7464    2.1492   50.9486 C.2     1  <0>        -0.3200
     10 C10         3.0849    1.5198   52.0043 C.2     1  <0>         0.5500
     11 O11         3.2692    1.7350   53.1912 O.2     1  <0>        -0.5200
     12 N12         2.2079    0.6350   51.4912 N.am    1  <0>        -0.5000
     13 N13         2.2941    0.6839   50.0964 N.pl3   1  <0>        -0.3300
     14 C14         1.6456    0.0146   49.0990 C.2     1  <0>         0.3900
     15 S15         0.4213   -1.1913   49.4887 S.3     1  <0>         0.1200
     16 C16        -0.5153   -1.2000   47.9398 C.3     1  <0>        -0.1500
     17 C17        -1.3721    0.0375   47.8641 C.2     1  <0>         0.5500
     18 O18        -1.7304    0.5903   48.8824 O.2     1  <0>        -0.5200
     19 N19        -1.7402    0.5297   46.6647 N.am    1  <0>        -0.6100
     20 C20        -1.3822   -0.0407   45.3578 C.3     1  <0>         0.0900
     21 C21        -2.0016    0.8687   44.2757 C.3     1  <0>        -0.1300
     22 C22        -2.1967    2.2145   45.0228 C.3     1  <0>        -0.1400
     23 C23        -2.5738    1.7259   46.4460 C.3     1  <0>         0.1000
     24 N24         1.9405    0.2823   47.8364 N.2     1  <0>        -0.5600
     25 C25         4.5042    1.4922   45.6711 C.ar    1  <0>        -0.0500
     26 C26         4.7857    1.7401   44.3433 C.ar    1  <0>        -0.1300
     27 H27         4.1004    1.3040   41.4476 H       1  <0>         0.0800
     28 H28         3.3026    2.8899   41.5758 H       1  <0>         0.0700
     29 H29         5.0414    2.7376   41.9248 H       1  <0>         0.0700
     30 H30         1.6429    2.1155   43.1660 H       1  <0>         0.1300
     31 H31         1.1190    1.6661   45.5270 H       1  <0>         0.1300
     32 H32         4.5091    2.9087   51.0374 H       1  <0>         0.1800
     33 H33         1.6163    0.0612   52.0028 H       1  <0>         0.4400
     34 H34         0.1760   -1.2154   47.0973 H       1  <0>         0.1400
     35 H35        -1.1510   -2.0847   47.9046 H       1  <0>         0.1400
     36 H36        -0.2981   -0.0629   45.2474 H       1  <0>         0.0800
     37 H37        -1.7865   -1.0493   45.2703 H       1  <0>         0.0800
     38 H38        -1.3174    0.9895   43.4358 H       1  <0>         0.0900
     39 H39        -2.9596    0.4715   43.9402 H       1  <0>         0.0800
     40 H40        -1.2719    2.7914   45.0365 H       1  <0>         0.0800
     41 H41        -3.0091    2.7921   44.5818 H       1  <0>         0.0900
     42 H42        -3.6325    1.4703   46.4912 H       1  <0>         0.0800
     43 H43        -2.3355    2.4905   47.1852 H       1  <0>         0.0800
     44 H44         5.3079    1.3180   46.3713 H       1  <0>         0.1400
     45 H45         5.8111    1.7635   44.0051 H       1  <0>         0.1300
@<TRIPOS>BOND
     1     1     2    1
     2     1    27    1
     3     1    28    1
     4     1    29    1
     5     2    26   ar
     6     2     3   ar
     7     3     4   ar
     8     3    30    1
     9     4     5   ar
    10     4    31    1
    11     5     6    1
    12     5    25   ar
    13     6    24    1
    14     6     7    2
    15     7     8    1
    16     8    13    1
    17     8     9    2
    18     9    10    1
    19     9    32    1
    20    10    11    2
    21    10    12   am
    22    12    13    1
    23    12    33    1
    24    13    14    1
    25    14    15    1
    26    14    24    2
    27    15    16    1
    28    16    17    1
    29    16    34    1
    30    16    35    1
    31    17    18    2
    32    17    19   am
    33    19    23    1
    34    19    20    1
    35    20    21    1
    36    20    36    1
    37    20    37    1
    38    21    22    1
    39    21    38    1
    40    21    39    1
    41    22    23    1
    42    22    40    1
    43    22    41    1
    44    23    42    1
    45    23    43    1
    46    25    26   ar
    47    25    44    1
    48    26    45    1
@<TRIPOS>SUBSTRUCTURE
     1 <0>         1 TEMP              0 ****  ****    0 ROOT


##########                                Name:    ZINC001207290212
##########                DOCK_Rotatable_Bonds:                   8
##########                         Heavy_Atoms:                  23
##########                    Molecular_Weight:             344.435
##########                DOCK_Rotatable_Bonds:                   8
##########                       Formal_Charge:               -0.03
##########                     HBond_Acceptors:                   9
##########                        HBond_Donors:                   2
##########                         Heavy_Atoms:                  23
##########                          Grid_Score:          -30.477196
##########                     Grid_vdw_energy:          -25.254719
##########                      Grid_es_energy:           -5.222477
##########           Internal_energy_repulsive:            5.649282

@<TRIPOS>MOLECULE
ZINC001207290212
 47 48 1 0 0
SMALL
USER_CHARGES


@<TRIPOS>ATOM
      1 C1          2.8727    2.6563   55.6554 C.3     1  ZINC001207290212   -0.1500
      2 C2          2.8593    3.5716   54.4294 C.3     1  ZINC001207290212   -0.6300
      3 S3          3.7928    2.7928   53.0831 S.o2    1  ZINC001207290212    2.6100
      4 O4          3.6302    3.5238   51.8755 O.2     1  ZINC001207290212   -0.9500
      5 O5          5.0819    2.3987   53.5330 O.2     1  ZINC001207290212   -0.9500
      6 N6          3.0030    1.3641   52.8051 N.am    1  ZINC001207290212   -1.1100
      7 C7          3.4838    0.4517   51.7647 C.3     1  ZINC001207290212    0.0900
      8 C8          2.7145    0.6918   50.4912 C.2     1  ZINC001207290212    0.5100
      9 O9          3.1121    1.5084   49.6874 O.2     1  ZINC001207290212   -0.5300
     10 N10         1.5847   -0.0008   50.2457 N.am    1  ZINC001207290212   -0.7200
     11 C11         0.8378    0.2314   49.0070 C.3     1  ZINC001207290212    0.1400
     12 H12         1.5125    0.5540   48.2140 H       1  ZINC001207290212    0.1000
     13 C13        -0.2614    1.2854   49.2351 C.3     1  ZINC001207290212    0.0200
     14 N14        -1.5587    0.6203   48.9858 N.3     1  ZINC001207290212   -0.5100
     15 C15        -2.5232    1.5543   48.3896 C.3     1  ZINC001207290212    0.1300
     16 C16        -3.1532    2.3872   49.4760 C.2     1  ZINC001207290212    0.0000
     17 C17        -3.5489    3.6661   49.3657 C.2     1  ZINC001207290212   -0.0700
     18 O18        -4.0554    4.0290   50.5604 O.3     1  ZINC001207290212   -0.2000
     19 C19        -3.9635    2.9738   51.3807 C.2     1  ZINC001207290212    0.1900
     20 C20        -4.4140    2.9378   52.8183 C.3     1  ZINC001207290212   -0.0600
     21 N21        -3.4261    1.9822   50.7290 N.2     1  ZINC001207290212   -0.4700
     22 C22        -1.2659   -0.5047   48.0613 C.3     1  ZINC001207290212    0.0400
     23 C23         0.0877   -1.0526   48.5840 C.3     1  ZINC001207290212   -0.1000
     24 H24        -0.0666   -1.7080   49.4412 H       1  ZINC001207290212    0.0900
     25 C25         0.8403   -1.7864   47.4723 C.3     1  ZINC001207290212   -0.1400
     26 H26         2.4140    1.7009   55.4006 H       1  ZINC001207290212    0.0700
     27 H27         3.9018    2.4917   55.9746 H       1  ZINC001207290212    0.0700
     28 H28         2.3118    3.1243   56.4643 H       1  ZINC001207290212    0.0800
     29 H29         1.8302    3.7362   54.1101 H       1  ZINC001207290212    0.1300
     30 H30         3.3179    4.5270   54.6842 H       1  ZINC001207290212    0.1300
     31 H31         2.2219    1.1313   53.3312 H       1  ZINC001207290212    0.4300
     32 H32         4.5445    0.6295   51.5874 H       1  ZINC001207290212    0.1000
     33 H33         3.3372   -0.5786   52.0889 H       1  ZINC001207290212    0.1100
     34 H34         1.2661   -0.6530   50.8892 H       1  ZINC001207290212    0.4100
     35 H35        -0.2212    1.6475   50.2625 H       1  ZINC001207290212    0.0800
     36 H36        -0.1301    2.1153   48.5407 H       1  ZINC001207290212    0.0500
     37 H37        -2.0087    2.2066   47.6840 H       1  ZINC001207290212    0.0600
     38 H38        -3.2975    0.9926   47.8671 H       1  ZINC001207290212    0.1000
     39 H39        -3.4747    4.2869   48.4850 H       1  ZINC001207290212    0.2100
     40 H40        -4.8293    3.9073   53.0934 H       1  ZINC001207290212    0.0900
     41 H41        -5.1762    2.1682   52.9411 H       1  ZINC001207290212    0.1000
     42 H42        -3.5627    2.7117   53.4604 H       1  ZINC001207290212    0.1000
     43 H43        -2.0412   -1.2680   48.1265 H       1  ZINC001207290212    0.0900
     44 H44        -1.1642   -0.1448   47.0374 H       1  ZINC001207290212    0.0500
     45 H45         1.0107   -1.1058   46.6382 H       1  ZINC001207290212    0.0600
     46 H46         1.7982   -2.1400   47.8541 H       1  ZINC001207290212    0.0600
     47 H47         0.2485   -2.6365   47.1328 H       1  ZINC001207290212    0.0600
@<TRIPOS>BOND
     1     1     2    1
     2     1    26    1
     3     1    27    1
     4     1    28    1
     5     2     3    1
     6     2    29    1
     7     2    30    1
     8     3     4    2
     9     3     5    2
    10     3     6   am
    11     6     7    1
    12     6    31    1
    13     7     8    1
    14     7    32    1
    15     7    33    1
    16     8     9    2
    17     8    10   am
    18    10    11    1
    19    10    34    1
    20    11    12    1
    21    11    23    1
    22    11    13    1
    23    13    14    1
    24    13    35    1
    25    13    36    1
    26    14    15    1
    27    14    22    1
    28    15    16    1
    29    15    37    1
    30    15    38    1
    31    16    21    1
    32    16    17    2
    33    17    18    1
    34    17    39    1
    35    18    19    1
    36    19    20    1
    37    19    21    2
    38    20    40    1
    39    20    41    1
    40    20    42    1
    41    22    23    1
    42    22    43    1
    43    22    44    1
    44    23    24    1
    45    23    25    1
    46    25    45    1
    47    25    46    1
    48    25    47    1
@<TRIPOS>SUBSTRUCTURE
     1 ZINC001207290212        1 TEMP              0 ****  ****    0 ROOT


##########                                Name:    ZINC000163855860
##########                DOCK_Rotatable_Bonds:                   6
##########                         Heavy_Atoms:                  28
##########                    Molecular_Weight:             398.483
##########                DOCK_Rotatable_Bonds:                   6
##########                       Formal_Charge:          -0.0100004
##########                     HBond_Acceptors:                   7
##########                        HBond_Donors:                   1
##########                         Heavy_Atoms:                  28
##########                          Grid_Score:          -30.463612
##########                     Grid_vdw_energy:          -30.864613
##########                      Grid_es_energy:            0.401001
##########           Internal_energy_repulsive:           16.192234

@<TRIPOS>MOLECULE
ZINC000163855860
 50 53 1 0 0
SMALL
USER_CHARGES


@<TRIPOS>ATOM
      1 C1         -8.4701    0.1319   56.9656 C.3     1  ZINC000163855860   -0.1300
      2 C2         -9.5617   -0.8810   57.1966 C.ar    1  ZINC000163855860   -0.0600
      3 C3        -10.3007   -1.3629   56.1276 C.ar    1  ZINC000163855860    0.1400
      4 N4        -10.0331   -0.9093   54.8310 N.am    1  ZINC000163855860   -0.6700
      5 C5         -9.6850   -1.7864   53.8686 C.2     1  ZINC000163855860    0.5100
      6 O6         -9.6036   -2.9687   54.1264 O.2     1  ZINC000163855860   -0.5100
      7 C7         -9.3969   -1.2979   52.4724 C.3     1  ZINC000163855860   -0.1300
      8 C8         -7.8892   -1.1012   52.3018 C.3     1  ZINC000163855860   -0.1100
      9 H9         -7.3455   -2.0065   52.5719 H       1  ZINC000163855860    0.1100
     10 C10        -7.5507   -0.6658   50.8578 C.3     1  ZINC000163855860    0.0600
     11 O11        -6.4243    0.2481   51.0082 O.3     1  ZINC000163855860   -0.3500
     12 C12        -6.5084    0.8869   52.1839 C.2     1  ZINC000163855860    0.4800
     13 O13        -5.9592    1.9299   52.4486 O.2     1  ZINC000163855860   -0.4500
     14 C14        -7.3945    0.1055   53.1297 C.3     1  ZINC000163855860   -0.1800
     15 C15       -11.3035   -2.3011   56.3427 C.ar    1  ZINC000163855860   -0.1100
     16 C16       -11.5709   -2.7529   57.6211 C.ar    1  ZINC000163855860   -0.1100
     17 C17       -10.8439   -2.2756   58.6930 C.ar    1  ZINC000163855860   -0.1000
     18 C18        -9.8351   -1.3331   58.4876 C.ar    1  ZINC000163855860   -0.1100
     19 C19        -9.0545   -0.8205   59.6340 C.2     1  ZINC000163855860    0.5700
     20 O20        -7.9679   -1.3001   59.8924 O.2     1  ZINC000163855860   -0.5300
     21 N21        -9.5476    0.1785   60.3924 N.am    1  ZINC000163855860   -0.6100
     22 C22       -10.8600    0.7729   60.0971 C.3     1  ZINC000163855860    0.1200
     23 C23       -11.8036    0.4668   61.2708 C.3     1  ZINC000163855860   -0.0600
     24 C24       -11.0807    0.7451   62.5715 C.2     1  ZINC000163855860   -0.1700
     25 C25        -9.7453    0.8496   62.7081 C.2     1  ZINC000163855860   -0.1300
     26 C26        -9.3320    1.0989   64.0130 C.2     1  ZINC000163855860   -0.1200
     27 C27       -10.3032    1.1999   64.9148 C.2     1  ZINC000163855860   -0.2100
     28 S28       -11.8600    0.9741   64.1319 S.3     1  ZINC000163855860    0.1100
     29 C29        -8.7853    0.7067   61.5326 C.3     1  ZINC000163855860    0.1700
     30 H30        -8.8657    1.1351   57.1247 H       1  ZINC000163855860    0.0700
     31 H31        -7.6517   -0.0506   57.6620 H       1  ZINC000163855860    0.0900
     32 H32        -8.1033    0.0439   55.9429 H       1  ZINC000163855860    0.0700
     33 H33       -10.0984    0.0363   54.6248 H       1  ZINC000163855860    0.4100
     34 H34        -9.9081   -0.3495   52.3066 H       1  ZINC000163855860    0.1100
     35 H35        -9.7516   -2.0329   51.7499 H       1  ZINC000163855860    0.1100
     36 H36        -8.3997   -0.1526   50.4061 H       1  ZINC000163855860    0.0800
     37 H37        -7.2631   -1.5289   50.2575 H       1  ZINC000163855860    0.1200
     38 H38        -6.8214   -0.2353   53.9920 H       1  ZINC000163855860    0.1200
     39 H39        -8.2380    0.7165   53.4512 H       1  ZINC000163855860    0.1200
     40 H40       -11.8754   -2.6784   55.5079 H       1  ZINC000163855860    0.1500
     41 H41       -12.3510   -3.4822   57.7820 H       1  ZINC000163855860    0.1300
     42 H42       -11.0559   -2.6311   59.6905 H       1  ZINC000163855860    0.1300
     43 H43       -10.7554    1.8516   59.9804 H       1  ZINC000163855860    0.0800
     44 H44       -11.2600    0.3399   59.1802 H       1  ZINC000163855860    0.1000
     45 H45       -12.1028   -0.5808   61.2368 H       1  ZINC000163855860    0.0900
     46 H46       -12.6878    1.1007   61.2023 H       1  ZINC000163855860    0.0900
     47 H47        -8.2897    1.2034   64.2761 H       1  ZINC000163855860    0.1400
     48 H48       -10.1578    1.3920   65.9676 H       1  ZINC000163855860    0.1700
     49 H49        -7.9835    0.0155   61.7925 H       1  ZINC000163855860    0.1000
     50 H50        -8.3655    1.6797   61.2772 H       1  ZINC000163855860    0.0900
@<TRIPOS>BOND
     1     1     2    1
     2     1    30    1
     3     1    31    1
     4     1    32    1
     5     2    18   ar
     6     2     3   ar
     7     3     4    1
     8     3    15   ar
     9     4     5   am
    10     4    33    1
    11     5     6    2
    12     5     7    1
    13     7     8    1
    14     7    34    1
    15     7    35    1
    16     8     9    1
    17     8    14    1
    18     8    10    1
    19    10    11    1
    20    10    36    1
    21    10    37    1
    22    11    12    1
    23    12    13    2
    24    12    14    1
    25    14    38    1
    26    14    39    1
    27    15    16   ar
    28    15    40    1
    29    16    17   ar
    30    16    41    1
    31    17    18   ar
    32    17    42    1
    33    18    19    1
    34    19    20    2
    35    19    21   am
    36    21    29    1
    37    21    22    1
    38    22    23    1
    39    22    43    1
    40    22    44    1
    41    23    24    1
    42    23    45    1
    43    23    46    1
    44    24    28    1
    45    24    25    2
    46    25    26    1
    47    25    29    1
    48    26    27    2
    49    26    47    1
    50    27    28    1
    51    27    48    1
    52    29    49    1
    53    29    50    1
@<TRIPOS>SUBSTRUCTURE
     1 ZINC000163855860        1 TEMP              0 ****  ****    0 ROOT


##########                                Name:    ZINC000949401225
##########                DOCK_Rotatable_Bonds:                   7
##########                         Heavy_Atoms:                  24
##########                    Molecular_Weight:             332.403
##########                DOCK_Rotatable_Bonds:                   7
##########                       Formal_Charge:                0.03
##########                     HBond_Acceptors:                   7
##########                        HBond_Donors:                   1
##########                         Heavy_Atoms:                  24
##########                          Grid_Score:          -30.454527
##########                     Grid_vdw_energy:          -30.284300
##########                      Grid_es_energy:           -0.170227
##########           Internal_energy_repulsive:           13.595137

@<TRIPOS>MOLECULE
ZINC000949401225
 48 50 1 0 0
SMALL
USER_CHARGES


@<TRIPOS>ATOM
      1 C1         -9.6180   -0.9655   54.3130 C.3     1  ZINC000949401225    0.0700
      2 N2         -8.6093   -0.0434   53.7852 N.pl3   1  ZINC000949401225   -0.4500
      3 C3         -8.5066    1.2751   54.1210 C.2     1  ZINC000949401225   -0.0100
      4 C4         -7.4728    1.8149   53.4511 C.2     1  ZINC000949401225   -0.1700
      5 C5         -6.8982    0.7360   52.6402 C.2     1  ZINC000949401225   -0.2400
      6 C6         -5.7439    0.8310   51.7307 C.2     1  ZINC000949401225    0.5900
      7 O7         -5.3564   -0.1559   51.1349 O.2     1  ZINC000949401225   -0.5500
      8 N8         -5.1170    2.0115   51.5587 N.am    1  ZINC000949401225   -0.7300
      9 C9         -3.9675    2.1057   50.6553 C.3     1  ZINC000949401225    0.1200
     10 C10        -3.0425    3.2313   51.1223 C.3     1  ZINC000949401225    0.1200
     11 H11        -3.4319    4.2217   50.8864 H       1  ZINC000949401225    0.1000
     12 C12        -2.5892    3.0844   52.5814 C.3     1  ZINC000949401225   -0.1500
     13 C13        -1.2495    3.5904   52.0290 C.3     1  ZINC000949401225    0.1000
     14 N14        -1.6405    3.0422   50.7204 N.am    1  ZINC000949401225   -0.6400
     15 C15        -0.9969    2.5720   49.6335 C.2     1  ZINC000949401225    0.5500
     16 O16         0.2154    2.5440   49.6116 O.2     1  ZINC000949401225   -0.5200
     17 C17        -1.7836    2.0811   48.4457 C.3     1  ZINC000949401225   -0.1400
     18 C18        -0.8634    1.2844   47.5186 C.3     1  ZINC000949401225    0.1500
     19 H19        -0.0383    1.9102   47.1781 H       1  ZINC000949401225    0.0900
     20 C20        -0.3211    0.0352   48.2481 C.3     1  ZINC000949401225   -0.1200
     21 C21        -0.2715   -1.0021   47.1024 C.3     1  ZINC000949401225   -0.1600
     22 C22        -1.3035   -0.5103   46.1116 C.2     1  ZINC000949401225    0.5200
     23 O23        -1.7765   -1.1747   45.2140 O.2     1  ZINC000949401225   -0.5300
     24 N24        -1.6197    0.7719   46.3700 N.am    1  ZINC000949401225   -0.6200
     25 C25        -2.5949    1.5530   45.6051 C.3     1  ZINC000949401225    0.0900
     26 C26        -7.6476   -0.3774   52.9038 C.2     1  ZINC000949401225    0.0800
     27 H27        -9.2404   -1.4363   55.2207 H       1  ZINC000949401225    0.0800
     28 H28       -10.5299   -0.4141   54.5421 H       1  ZINC000949401225    0.0900
     29 H29        -9.8342   -1.7321   53.5689 H       1  ZINC000949401225    0.0900
     30 H30        -9.1501    1.7995   54.8117 H       1  ZINC000949401225    0.1700
     31 H31        -7.1335    2.8391   53.5002 H       1  ZINC000949401225    0.1500
     32 H32        -5.4268    2.7989   52.0329 H       1  ZINC000949401225    0.4000
     33 H33        -3.4226    1.1617   50.6610 H       1  ZINC000949401225    0.0700
     34 H34        -4.3162    2.3177   49.6445 H       1  ZINC000949401225    0.0900
     35 H35        -3.0763    3.7725   53.2722 H       1  ZINC000949401225    0.1000
     36 H36        -2.5647    2.0554   52.9402 H       1  ZINC000949401225    0.1000
     37 H37        -1.1603    4.6768   52.0343 H       1  ZINC000949401225    0.0900
     38 H38        -0.3838    3.0937   52.4673 H       1  ZINC000949401225    0.0800
     39 H39        -2.5970    1.4413   48.7878 H       1  ZINC000949401225    0.1000
     40 H40        -2.1946    2.9334   47.9047 H       1  ZINC000949401225    0.1000
     41 H41         0.6749    0.2201   48.6503 H       1  ZINC000949401225    0.1000
     42 H42        -1.0046   -0.2845   49.0345 H       1  ZINC000949401225    0.0800
     43 H43         0.7181   -1.0191   46.6458 H       1  ZINC000949401225    0.1100
     44 H44        -0.5390   -1.9920   47.4722 H       1  ZINC000949401225    0.1000
     45 H45        -3.0732    0.9121   44.8645 H       1  ZINC000949401225    0.0800
     46 H46        -3.3503    1.9534   46.2813 H       1  ZINC000949401225    0.0600
     47 H47        -2.0867    2.3748   45.1006 H       1  ZINC000949401225    0.0600
     48 H48        -7.4976   -1.3564   52.4732 H       1  ZINC000949401225    0.1800
@<TRIPOS>BOND
     1     1     2    1
     2     1    27    1
     3     1    28    1
     4     1    29    1
     5     2    26    1
     6     2     3    1
     7     3     4    2
     8     3    30    1
     9     4     5    1
    10     4    31    1
    11     5     6    1
    12     5    26    2
    13     6     7    2
    14     6     8   am
    15     8     9    1
    16     8    32    1
    17     9    10    1
    18     9    33    1
    19     9    34    1
    20    10    11    1
    21    10    14    1
    22    10    12    1
    23    12    13    1
    24    12    35    1
    25    12    36    1
    26    13    14    1
    27    13    37    1
    28    13    38    1
    29    14    15   am
    30    15    16    2
    31    15    17    1
    32    17    18    1
    33    17    39    1
    34    17    40    1
    35    18    19    1
    36    18    24    1
    37    18    20    1
    38    20    21    1
    39    20    41    1
    40    20    42    1
    41    21    22    1
    42    21    43    1
    43    21    44    1
    44    22    23    2
    45    22    24   am
    46    24    25    1
    47    25    45    1
    48    25    46    1
    49    25    47    1
    50    26    48    1
@<TRIPOS>SUBSTRUCTURE
     1 ZINC000949401225        1 TEMP              0 ****  ****    0 ROOT


##########                                Name:    ZINC001181473921
##########                DOCK_Rotatable_Bonds:                   9
##########                         Heavy_Atoms:                  24
##########                    Molecular_Weight:             357.431
##########                DOCK_Rotatable_Bonds:                   9
##########                       Formal_Charge:        -5.96046e-08
##########                     HBond_Acceptors:                   9
##########                        HBond_Donors:                   4
##########                         Heavy_Atoms:                  24
##########                          Grid_Score:          -30.439896
##########                     Grid_vdw_energy:          -27.999580
##########                      Grid_es_energy:           -2.440315
##########           Internal_energy_repulsive:           14.197146

@<TRIPOS>MOLECULE
ZINC001181473921
 47 48 1 0 0
SMALL
USER_CHARGES


@<TRIPOS>ATOM
      1 C1         -8.3490    1.0226   55.1145 C.3     1  ZINC001181473921   -0.1300
      2 C2         -8.1469    0.4338   53.7422 C.2     1  ZINC001181473921    0.1900
      3 C3         -7.0502    0.7678   53.0288 C.2     1  ZINC001181473921   -0.2400
      4 C4         -6.8557    0.2199   51.7452 C.2     1  ZINC001181473921    0.2500
      5 O5         -5.7604    0.5449   51.0175 O.3     1  ZINC001181473921   -0.4600
      6 C6         -7.7998   -0.6548   51.2403 C.2     1  ZINC001181473921   -0.3700
      7 C7         -8.9204   -0.9708   52.0174 C.2     1  ZINC001181473921    0.5300
      8 O8         -9.7631   -1.7420   51.5859 O.2     1  ZINC001181473921   -0.5500
      9 N9         -9.0680   -0.4307   53.2413 N.am    1  ZINC001181473921   -0.5000
     10 C10       -10.2463   -0.7720   54.0422 C.3     1  ZINC001181473921    0.1000
     11 C11        -9.9708   -2.0510   54.8353 C.3     1  ZINC001181473921   -0.1600
     12 C12       -11.2343   -2.4959   55.5259 C.2     1  ZINC001181473921    0.5200
     13 O13       -11.4100   -3.6707   55.7709 O.2     1  ZINC001181473921   -0.5300
     14 N14       -12.1689   -1.5884   55.8713 N.am    1  ZINC001181473921   -0.7200
     15 C15       -13.3979   -2.0211   56.5411 C.3     1  ZINC001181473921    0.1400
     16 H16       -13.6805   -3.0227   56.2169 H       1  ZINC001181473921    0.1000
     17 C17       -14.5472   -1.0156   56.2823 C.3     1  ZINC001181473921   -0.1300
     18 C18       -15.5117   -1.2306   57.4670 C.3     1  ZINC001181473921   -0.1500
     19 C19       -14.6764   -1.8335   58.6101 C.3     1  ZINC001181473921   -0.0800
     20 H20       -15.0656   -2.8155   58.8791 H       1  ZINC001181473921    0.0900
     21 C21       -14.7073   -0.9066   59.8270 C.3     1  ZINC001181473921   -0.6200
     22 S22       -14.4180   -1.8757   61.3328 S.o2    1  ZINC001181473921    2.6100
     23 N23       -12.7715   -2.0338   61.4125 N.am    1  ZINC001181473921   -1.2500
     24 O24       -14.7535   -1.1168   62.4864 O.2     1  ZINC001181473921   -0.9600
     25 O25       -14.8902   -3.2058   61.1681 O.2     1  ZINC001181473921   -0.9600
     26 C26       -13.2318   -1.9687   58.0802 C.3     1  ZINC001181473921   -0.1200
     27 H27        -8.4796    0.2189   55.8391 H       1  ZINC001181473921    0.0900
     28 H28        -7.4777    1.6186   55.3861 H       1  ZINC001181473921    0.1000
     29 H29        -9.2357    1.6564   55.1110 H       1  ZINC001181473921    0.0900
     30 H30        -6.3243    1.4532   53.4408 H       1  ZINC001181473921    0.1500
     31 H31        -5.4504   -0.1628   50.4361 H       1  ZINC001181473921    0.4100
     32 H32        -7.6746   -1.0884   50.2591 H       1  ZINC001181473921    0.1500
     33 H33       -10.4653    0.0431   54.7319 H       1  ZINC001181473921    0.1000
     34 H34       -11.1002   -0.9298   53.3833 H       1  ZINC001181473921    0.1100
     35 H35        -9.6330   -2.8340   54.1563 H       1  ZINC001181473921    0.1100
     36 H36        -9.1986   -1.8577   55.5798 H       1  ZINC001181473921    0.1000
     37 H37       -12.0278   -0.6487   55.6764 H       1  ZINC001181473921    0.4000
     38 H38       -14.1671    0.0060   56.2804 H       1  ZINC001181473921    0.0700
     39 H39       -15.0454   -1.2401   55.3392 H       1  ZINC001181473921    0.0800
     40 H40       -15.9383   -0.2773   57.7789 H       1  ZINC001181473921    0.0900
     41 H41       -16.3062   -1.9199   57.1813 H       1  ZINC001181473921    0.0800
     42 H42       -13.9293   -0.1496   59.7270 H       1  ZINC001181473921    0.1400
     43 H43       -15.6811   -0.4208   59.8890 H       1  ZINC001181473921    0.1400
     44 H44       -12.3661   -2.5219   62.1462 H       1  ZINC001181473921    0.4100
     45 H45       -12.2124   -1.6383   60.7256 H       1  ZINC001181473921    0.4200
     46 H46       -12.7738   -2.8856   58.4509 H       1  ZINC001181473921    0.0800
     47 H47       -12.6375   -1.1012   58.3672 H       1  ZINC001181473921    0.0800
@<TRIPOS>BOND
     1     1     2    1
     2     1    27    1
     3     1    28    1
     4     1    29    1
     5     2     9    1
     6     2     3    2
     7     3     4    1
     8     3    30    1
     9     4     5    1
    10     4     6    2
    11     5    31    1
    12     6     7    1
    13     6    32    1
    14     7     8    2
    15     7     9   am
    16     9    10    1
    17    10    11    1
    18    10    33    1
    19    10    34    1
    20    11    12    1
    21    11    35    1
    22    11    36    1
    23    12    13    2
    24    12    14   am
    25    14    15    1
    26    14    37    1
    27    15    16    1
    28    15    26    1
    29    15    17    1
    30    17    18    1
    31    17    38    1
    32    17    39    1
    33    18    19    1
    34    18    40    1
    35    18    41    1
    36    19    20    1
    37    19    21    1
    38    19    26    1
    39    21    22    1
    40    21    42    1
    41    21    43    1
    42    22    23   am
    43    22    24    2
    44    22    25    2
    45    23    44    1
    46    23    45    1
    47    26    46    1
    48    26    47    1
@<TRIPOS>SUBSTRUCTURE
     1 ZINC001181473921        1 TEMP              0 ****  ****    0 ROOT


##########                                Name:    ZINC000821442454
##########                DOCK_Rotatable_Bonds:                   6
##########                         Heavy_Atoms:                  26
##########                    Molecular_Weight:             398.873
##########                DOCK_Rotatable_Bonds:                   6
##########                       Formal_Charge:          -0.0399996
##########                     HBond_Acceptors:                  11
##########                        HBond_Donors:                   2
##########                         Heavy_Atoms:                  26
##########                          Grid_Score:          -30.421221
##########                     Grid_vdw_energy:          -24.759657
##########                      Grid_es_energy:           -5.661564
##########           Internal_energy_repulsive:            9.144014

@<TRIPOS>MOLECULE
ZINC000821442454
 45 47 1 0 0
SMALL
USER_CHARGES


@<TRIPOS>ATOM
      1 C1          2.9307    0.1378   45.1805 C.3     1  ZINC000821442454   -0.1500
      2 C2          2.4619    1.0518   44.0466 C.3     1  ZINC000821442454   -0.6300
      3 S3          1.4590    2.3993   44.7316 S.o2    1  ZINC000821442454    2.6000
      4 O4          2.0908    2.9599   45.8742 O.2     1  ZINC000821442454   -0.9500
      5 O5          0.9588    3.2274   43.6907 O.2     1  ZINC000821442454   -0.9500
      6 N6          0.1138    1.6467   45.3369 N.am    1  ZINC000821442454   -1.0000
      7 C7         -0.7667    0.8659   44.4571 C.3     1  ZINC000821442454    0.1100
      8 C8         -2.2021    1.3769   44.6168 C.3     1  ZINC000821442454   -0.1300
      9 C9         -2.5930    1.3342   46.0957 C.3     1  ZINC000821442454   -0.1100
     10 C10        -1.6631    2.2477   46.8976 C.3     1  ZINC000821442454   -0.1200
     11 H11        -1.7317    3.2651   46.5124 H       1  ZINC000821442454    0.1100
     12 C12        -2.0696    2.2306   48.3486 C.2     1  ZINC000821442454    0.5300
     13 O13        -2.3574    1.1818   48.8855 O.2     1  ZINC000821442454   -0.5100
     14 N14        -2.1134    3.3808   49.0497 N.am    1  ZINC000821442454   -0.6700
     15 C15        -2.4907    3.3651   50.3965 C.ar    1  ZINC000821442454    0.1800
     16 C16        -3.8197    3.5665   50.7470 C.ar    1  ZINC000821442454   -0.1200
     17 C17        -4.1942    3.5509   52.0743 C.ar    1  ZINC000821442454   -0.0500
     18 C18        -3.2387    3.3328   53.0646 C.ar    1  ZINC000821442454   -0.0300
     19 C19        -3.6400    3.3152   54.4934 C.2     1  ZINC000821442454    0.2200
     20 N20        -2.8776    2.9999   55.5216 N.2     1  ZINC000821442454   -0.2900
     21 N21        -3.5916    3.1064   56.5892 N.pl3   1  ZINC000821442454   -0.2200
     22 N22        -4.7817    3.4793   56.2702 N.2     1  ZINC000821442454   -0.0400
     23 N23        -4.8467    3.6227   54.9901 N.2     1  ZINC000821442454   -0.2700
     24 C24        -1.9054    3.1307   52.7118 C.ar    1  ZINC000821442454   -0.0500
     25 C25        -1.5357    3.1419   51.3828 C.ar    1  ZINC000821442454   -0.0800
     26 Cl26        0.1245    2.8903   50.9420 Cl      1  ZINC000821442454   -0.0500
     27 C27        -0.2186    1.7419   46.7648 C.3     1  ZINC000821442454    0.1400
     28 H28         3.5290    0.7131   45.8871 H       1  ZINC000821442454    0.0700
     29 H29         2.0638   -0.2788   45.6933 H       1  ZINC000821442454    0.0700
     30 H30         3.5333   -0.6719   44.7689 H       1  ZINC000821442454    0.0800
     31 H31         3.3288    1.4685   43.5338 H       1  ZINC000821442454    0.1300
     32 H32         1.8635    0.4765   43.3401 H       1  ZINC000821442454    0.1300
     33 H33        -0.4489    0.9867   43.4215 H       1  ZINC000821442454    0.1000
     34 H34        -0.7207   -0.1870   44.7352 H       1  ZINC000821442454    0.0700
     35 H35        -2.2656    2.4025   44.2532 H       1  ZINC000821442454    0.0700
     36 H36        -2.8794    0.7443   44.0430 H       1  ZINC000821442454    0.0800
     37 H37        -3.6224    1.6741   46.2093 H       1  ZINC000821442454    0.0700
     38 H38        -2.5054    0.3125   46.4652 H       1  ZINC000821442454    0.0800
     39 H39        -1.8833    4.2196   48.6203 H       1  ZINC000821442454    0.4200
     40 H40        -4.5603    3.7359   49.9794 H       1  ZINC000821442454    0.1600
     41 H41        -5.2275    3.7080   52.3459 H       1  ZINC000821442454    0.1500
     42 H42        -3.2811    2.9327   57.4916 H       1  ZINC000821442454    0.4800
     43 H43        -1.1633    2.9616   53.4779 H       1  ZINC000821442454    0.1500
     44 H44        -0.1304    0.7612   47.2322 H       1  ZINC000821442454    0.0800
     45 H45         0.4601    2.4429   47.2507 H       1  ZINC000821442454    0.1000
@<TRIPOS>BOND
     1     1     2    1
     2     1    28    1
     3     1    29    1
     4     1    30    1
     5     2     3    1
     6     2    31    1
     7     2    32    1
     8     3     4    2
     9     3     5    2
    10     3     6   am
    11     6    27    1
    12     6     7    1
    13     7     8    1
    14     7    33    1
    15     7    34    1
    16     8     9    1
    17     8    35    1
    18     8    36    1
    19     9    10    1
    20     9    37    1
    21     9    38    1
    22    10    11    1
    23    10    12    1
    24    10    27    1
    25    12    13    2
    26    12    14   am
    27    14    15    1
    28    14    39    1
    29    15    25   ar
    30    15    16   ar
    31    16    17   ar
    32    16    40    1
    33    17    18   ar
    34    17    41    1
    35    18    19    1
    36    18    24   ar
    37    19    23    1
    38    19    20    2
    39    20    21    1
    40    21    22    1
    41    21    42    1
    42    22    23    2
    43    24    25   ar
    44    24    43    1
    45    25    26    1
    46    27    44    1
    47    27    45    1
@<TRIPOS>SUBSTRUCTURE
     1 ZINC000821442454        1 TEMP              0 ****  ****    0 ROOT


##########                                Name:    ZINC000194290865
##########                DOCK_Rotatable_Bonds:                   7
##########                         Heavy_Atoms:                  28
##########                    Molecular_Weight:             387.479
##########                DOCK_Rotatable_Bonds:                   7
##########                       Formal_Charge:          -0.0400003
##########                     HBond_Acceptors:                   7
##########                        HBond_Donors:                   0
##########                         Heavy_Atoms:                  28
##########                          Grid_Score:          -30.408611
##########                     Grid_vdw_energy:          -29.620401
##########                      Grid_es_energy:           -0.788210
##########           Internal_energy_repulsive:           39.664749

@<TRIPOS>MOLECULE
ZINC000194290865
 57 59 1 0 0
SMALL
USER_CHARGES


@<TRIPOS>ATOM
      1 C1         -7.2045   -0.4832   51.1161 C.3     1  ZINC000194290865   -0.1500
      2 C2         -8.3306   -0.8344   52.0903 C.3     1  ZINC000194290865    0.0600
      3 O3         -9.1558    0.3382   52.3193 O.3     1  ZINC000194290865   -0.3600
      4 C4        -10.1818    0.2038   53.1743 C.2     1  ZINC000194290865    0.4700
      5 O5        -11.3056    0.0660   52.7525 O.2     1  ZINC000194290865   -0.4900
      6 C6         -9.9321    0.2250   54.6603 C.3     1  ZINC000194290865   -0.0600
      7 C7         -8.6813    1.0474   54.9766 C.3     1  ZINC000194290865   -0.0700
      8 C8         -8.9126    2.5043   54.5702 C.3     1  ZINC000194290865   -0.1700
      9 C9         -8.3902    0.9765   56.4769 C.3     1  ZINC000194290865   -0.1600
     10 C10       -11.1592    0.8023   55.4030 C.3     1  ZINC000194290865   -0.1200
     11 C11       -11.9232   -0.4705   55.8468 C.3     1  ZINC000194290865    0.0900
     12 N12       -10.8366   -1.4113   56.2050 N.am    1  ZINC000194290865   -0.6100
     13 C13       -10.8189   -2.2750   57.2394 C.2     1  ZINC000194290865    0.5800
     14 O14        -9.8542   -2.9930   57.4151 O.2     1  ZINC000194290865   -0.5000
     15 C15       -11.9744   -2.3492   58.1614 C.ar    1  ZINC000194290865    0.0100
     16 C16       -11.9136   -1.7862   59.4507 C.ar    1  ZINC000194290865   -0.2200
     17 C17       -13.0337   -1.8789   60.2948 C.ar    1  ZINC000194290865    0.3000
     18 N18       -14.1308   -2.4905   59.8757 N.ar    1  ZINC000194290865   -0.4700
     19 C19       -14.2166   -3.0257   58.6766 C.ar    1  ZINC000194290865    0.2100
     20 C20       -15.4970   -3.7061   58.2658 C.3     1  ZINC000194290865   -0.1100
     21 C21       -13.1615   -2.9740   57.7800 C.ar    1  ZINC000194290865   -0.1800
     22 O22       -12.7046   -1.2659   61.4498 O.3     1  ZINC000194290865   -0.0800
     23 N23       -11.3816   -0.7767   61.3619 N.2     1  ZINC000194290865   -0.2600
     24 C24       -10.8841   -1.0650   60.1980 C.2     1  ZINC000194290865    0.1600
     25 C25        -9.5013   -0.7205   59.7080 C.3     1  ZINC000194290865   -0.0400
     26 C26        -9.2482    0.7755   59.9050 C.3     1  ZINC000194290865   -0.1500
     27 C27        -8.4655   -1.5216   60.4994 C.3     1  ZINC000194290865   -0.1400
     28 C28        -9.7786   -1.2102   55.1974 C.3     1  ZINC000194290865    0.1200
     29 H29        -7.6326   -0.1500   50.1707 H       1  ZINC000194290865    0.0700
     30 H30        -6.5934    0.3141   51.5393 H       1  ZINC000194290865    0.0700
     31 H31        -6.5850   -1.3635   50.9442 H       1  ZINC000194290865    0.0800
     32 H32        -8.9417   -1.6317   51.6670 H       1  ZINC000194290865    0.0700
     33 H33        -7.9025   -1.1677   53.0357 H       1  ZINC000194290865    0.0700
     34 H34        -7.8328    0.6459   54.4225 H       1  ZINC000194290865    0.0900
     35 H35        -9.1199    2.5548   53.5014 H       1  ZINC000194290865    0.0500
     36 H36        -9.7611    2.9056   55.1244 H       1  ZINC000194290865    0.0800
     37 H37        -8.0215    3.0902   54.7955 H       1  ZINC000194290865    0.0600
     38 H38        -8.2254   -0.0613   56.7664 H       1  ZINC000194290865    0.0500
     39 H39        -7.4990    1.5624   56.7023 H       1  ZINC000194290865    0.0600
     40 H40        -9.2387    1.3779   57.0311 H       1  ZINC000194290865    0.0800
     41 H41       -10.8469    1.3865   56.2685 H       1  ZINC000194290865    0.0900
     42 H42       -11.7698    1.4039   54.7298 H       1  ZINC000194290865    0.0900
     43 H43       -12.5508   -0.2601   56.7128 H       1  ZINC000194290865    0.0900
     44 H44       -12.5200   -0.8670   55.0253 H       1  ZINC000194290865    0.0900
     45 H45       -16.1594   -2.9799   57.7947 H       1  ZINC000194290865    0.0900
     46 H46       -15.2733   -4.5056   57.5595 H       1  ZINC000194290865    0.0900
     47 H47       -15.9845   -4.1249   59.1462 H       1  ZINC000194290865    0.0900
     48 H48       -13.2543   -3.4199   56.8007 H       1  ZINC000194290865    0.1600
     49 H49        -9.4193   -0.9665   58.6492 H       1  ZINC000194290865    0.1100
     50 H50        -9.3302    1.0215   60.9638 H       1  ZINC000194290865    0.0700
     51 H51        -8.2480    1.0246   59.5506 H       1  ZINC000194290865    0.0700
     52 H52        -9.9861    1.3462   59.3413 H       1  ZINC000194290865    0.0600
     53 H53        -8.6457   -2.5874   60.3589 H       1  ZINC000194290865    0.0600
     54 H54        -7.4653   -1.2724   60.1448 H       1  ZINC000194290865    0.0700
     55 H55        -8.5475   -1.2757   61.5580 H       1  ZINC000194290865    0.0600
     56 H56        -9.8995   -1.9258   54.3842 H       1  ZINC000194290865    0.0800
     57 H57        -8.7986   -1.3310   55.6591 H       1  ZINC000194290865    0.1000
@<TRIPOS>BOND
     1     1     2    1
     2     1    29    1
     3     1    30    1
     4     1    31    1
     5     2     3    1
     6     2    32    1
     7     2    33    1
     8     3     4    1
     9     4     5    2
    10     4     6    1
    11     6    28    1
    12     6     7    1
    13     6    10    1
    14     7     8    1
    15     7     9    1
    16     7    34    1
    17     8    35    1
    18     8    36    1
    19     8    37    1
    20     9    38    1
    21     9    39    1
    22     9    40    1
    23    10    11    1
    24    10    41    1
    25    10    42    1
    26    11    12    1
    27    11    43    1
    28    11    44    1
    29    12    13   am
    30    12    28    1
    31    13    14    2
    32    13    15    1
    33    15    21   ar
    34    15    16   ar
    35    16    24    1
    36    16    17   ar
    37    17    18   ar
    38    17    22    1
    39    18    19   ar
    40    19    20    1
    41    19    21   ar
    42    20    45    1
    43    20    46    1
    44    20    47    1
    45    21    48    1
    46    22    23    1
    47    23    24    2
    48    24    25    1
    49    25    26    1
    50    25    27    1
    51    25    49    1
    52    26    50    1
    53    26    51    1
    54    26    52    1
    55    27    53    1
    56    27    54    1
    57    27    55    1
    58    28    56    1
    59    28    57    1
@<TRIPOS>SUBSTRUCTURE
     1 ZINC000194290865        1 TEMP              0 ****  ****    0 ROOT


##########                                Name:    ZINC000433533595
##########                DOCK_Rotatable_Bonds:                  10
##########                         Heavy_Atoms:                  24
##########                    Molecular_Weight:             397.312
##########                DOCK_Rotatable_Bonds:                  10
##########                       Formal_Charge:          0.00999916
##########                     HBond_Acceptors:                   5
##########                        HBond_Donors:                   1
##########                         Heavy_Atoms:                  24
##########                          Grid_Score:          -30.400822
##########                     Grid_vdw_energy:          -30.839430
##########                      Grid_es_energy:            0.438608
##########           Internal_energy_repulsive:           18.345310

@<TRIPOS>MOLECULE
ZINC000433533595
 49 50 1 0 0
SMALL
USER_CHARGES


@<TRIPOS>ATOM
      1 C1        -12.1896    1.8105   52.0988 C.3     1  ZINC000433533595   -0.1500
      2 C2        -10.9174    0.9925   51.8683 C.3     1  ZINC000433533595   -0.1200
      3 C3        -11.1445   -0.4466   52.3356 C.3     1  ZINC000433533595   -0.1300
      4 C4         -9.8888   -1.2763   52.0608 C.3     1  ZINC000433533595    0.1000
      5 N5         -8.7292   -0.6254   52.6757 N.am    1  ZINC000433533595   -0.5500
      6 C6         -8.5218   -0.7321   54.0031 C.2     1  ZINC000433533595    0.5100
      7 O7         -7.5612   -0.1929   54.5124 O.2     1  ZINC000433533595   -0.5100
      8 C8         -9.4739   -1.5138   54.8471 C.2     1  ZINC000433533595    0.5000
      9 O9         -9.5457   -2.7193   54.7236 O.2     1  ZINC000433533595   -0.4900
     10 N10       -10.2537   -0.8809   55.7459 N.am    1  ZINC000433533595   -0.6300
     11 C11       -11.1455   -1.6130   56.5365 C.ar    1  ZINC000433533595    0.1200
     12 C12       -12.4450   -1.8295   56.1009 C.ar    1  ZINC000433533595   -0.0600
     13 C13       -13.3246   -2.5537   56.8846 C.ar    1  ZINC000433533595   -0.1100
     14 Br14      -15.0952   -2.8484   56.2893 Br      1  ZINC000433533595   -0.0400
     15 C15       -12.9122   -3.0635   58.1026 C.ar    1  ZINC000433533595   -0.0600
     16 C16       -11.6186   -2.8516   58.5430 C.ar    1  ZINC000433533595   -0.1900
     17 C17       -10.7296   -2.1322   57.7616 C.ar    1  ZINC000433533595    0.1300
     18 O18        -9.4573   -1.9233   58.1937 O.3     1  ZINC000433533595   -0.3100
     19 C19        -9.2448   -0.8200   59.0766 C.3     1  ZINC000433533595    0.0800
     20 C20        -8.8807   -1.3426   60.4676 C.3     1  ZINC000433533595   -0.1500
     21 C21        -8.1032    0.0477   58.5428 C.3     1  ZINC000433533595   -0.1800
     22 C22        -7.7951    0.1415   51.8476 C.3     1  ZINC000433533595    0.0600
     23 C23        -6.4338   -0.4898   51.5489 C.3     1  ZINC000433533595   -0.1900
     24 C24        -7.4904   -0.3929   50.4466 C.3     1  ZINC000433533595   -0.1800
     25 H25       -12.4359    1.8079   53.1606 H       1  ZINC000433533595    0.0500
     26 H26       -12.0277    2.8356   51.7659 H       1  ZINC000433533595    0.0500
     27 H27       -13.0116    1.3705   51.5341 H       1  ZINC000433533595    0.0500
     28 H28       -10.6711    0.9951   50.8065 H       1  ZINC000433533595    0.0700
     29 H29       -10.0953    1.4324   52.4331 H       1  ZINC000433533595    0.0600
     30 H30       -11.3569   -0.4522   53.4047 H       1  ZINC000433533595    0.0600
     31 H31       -11.9885   -0.8751   51.7953 H       1  ZINC000433533595    0.0700
     32 H32       -10.0123   -2.2733   52.4835 H       1  ZINC000433533595    0.1100
     33 H33        -9.7333   -1.3546   50.9848 H       1  ZINC000433533595    0.0800
     34 H34       -10.1964    0.0824   55.8445 H       1  ZINC000433533595    0.4300
     35 H35       -12.7694   -1.4323   55.1505 H       1  ZINC000433533595    0.1600
     36 H36       -13.6027   -3.6283   58.7116 H       1  ZINC000433533595    0.1400
     37 H37       -11.3001   -3.2511   59.4945 H       1  ZINC000433533595    0.1500
     38 H38       -10.1554   -0.2241   59.1390 H       1  ZINC000433533595    0.0800
     39 H39        -7.9702   -1.9385   60.4050 H       1  ZINC000433533595    0.0700
     40 H40        -8.7187   -0.5010   61.1410 H       1  ZINC000433533595    0.0800
     41 H41        -9.6941   -1.9608   60.8479 H       1  ZINC000433533595    0.0700
     42 H42        -7.1927   -0.5482   58.4802 H       1  ZINC000433533595    0.0700
     43 H43        -8.3626    0.4200   57.5518 H       1  ZINC000433533595    0.0600
     44 H44        -7.9412    0.8893   59.2162 H       1  ZINC000433533595    0.0800
     45 H45        -7.8312    1.2231   51.9768 H       1  ZINC000433533595    0.1400
     46 H46        -5.5739    0.1766   51.4818 H       1  ZINC000433533595    0.0900
     47 H47        -6.2332   -1.4756   51.9685 H       1  ZINC000433533595    0.1400
     48 H48        -7.9850   -1.3149   50.1412 H       1  ZINC000433533595    0.1000
     49 H49        -7.3257    0.3373   49.6543 H       1  ZINC000433533595    0.1000
@<TRIPOS>BOND
     1     1     2    1
     2     1    25    1
     3     1    26    1
     4     1    27    1
     5     2     3    1
     6     2    28    1
     7     2    29    1
     8     3     4    1
     9     3    30    1
    10     3    31    1
    11     4     5    1
    12     4    32    1
    13     4    33    1
    14     5     6   am
    15     5    22    1
    16     6     7    2
    17     6     8    1
    18     8     9    2
    19     8    10   am
    20    10    11    1
    21    10    34    1
    22    11    17   ar
    23    11    12   ar
    24    12    13   ar
    25    12    35    1
    26    13    14    1
    27    13    15   ar
    28    15    16   ar
    29    15    36    1
    30    16    17   ar
    31    16    37    1
    32    17    18    1
    33    18    19    1
    34    19    20    1
    35    19    21    1
    36    19    38    1
    37    20    39    1
    38    20    40    1
    39    20    41    1
    40    21    42    1
    41    21    43    1
    42    21    44    1
    43    22    24    1
    44    22    23    1
    45    22    45    1
    46    23    24    1
    47    23    46    1
    48    23    47    1
    49    24    48    1
    50    24    49    1
@<TRIPOS>SUBSTRUCTURE
     1 ZINC000433533595        1 TEMP              0 ****  ****    0 ROOT


##########                                Name:    ZINC001127302705
##########                DOCK_Rotatable_Bonds:                   9
##########                         Heavy_Atoms:                  28
##########                    Molecular_Weight:             398.892
##########                DOCK_Rotatable_Bonds:                   9
##########                       Formal_Charge:          -0.0200002
##########                     HBond_Acceptors:                   7
##########                        HBond_Donors:                   1
##########                         Heavy_Atoms:                  28
##########                          Grid_Score:          -30.355717
##########                     Grid_vdw_energy:          -29.549093
##########                      Grid_es_energy:           -0.806623
##########           Internal_energy_repulsive:           20.675287

@<TRIPOS>MOLECULE
ZINC001127302705
 51 53 1 0 0
SMALL
USER_CHARGES


@<TRIPOS>ATOM
      1 C1         -8.8540   -0.8474   61.2689 C.3     1  ZINC001127302705   -0.1500
      2 C2        -10.2966   -1.3477   61.1707 C.3     1  ZINC001127302705   -0.1400
      3 C3        -10.5987   -1.7526   59.7265 C.3     1  ZINC001127302705    0.1800
      4 C4         -9.9422   -3.1017   59.4271 C.3     1  ZINC001127302705   -0.1600
      5 C5        -12.1123   -1.8683   59.5352 C.3     1  ZINC001127302705    0.0700
      6 O6        -12.7357   -2.1017   60.7998 O.3     1  ZINC001127302705   -0.2800
      7 C7        -14.0818   -1.9417   60.8619 C.ar    1  ZINC001127302705    0.3400
      8 N8        -14.8708   -2.7663   60.1943 N.ar    1  ZINC001127302705   -0.5300
      9 C9        -16.1847   -2.6467   60.2275 C.ar    1  ZINC001127302705    0.1400
     10 C10       -16.7864   -1.6479   60.9662 C.ar    1  ZINC001127302705   -0.2000
     11 C11       -15.9937   -0.7609   61.6818 C.ar    1  ZINC001127302705   -0.0300
     12 C12       -14.6186   -0.9158   61.6316 C.ar    1  ZINC001127302705   -0.1100
     13 Cl13      -13.5788    0.1642   62.5066 Cl      1  ZINC001127302705   -0.0400
     14 N14       -10.0674   -0.7376   58.8134 N.am    1  ZINC001127302705   -0.7100
     15 C15       -10.3297   -0.8150   57.4935 C.2     1  ZINC001127302705    0.6200
     16 O16       -11.0083   -1.7262   57.0611 O.2     1  ZINC001127302705   -0.5200
     17 C17        -9.7925    0.2073   56.5727 C.2     1  ZINC001127302705   -0.0200
     18 N18       -10.0088    0.2851   55.2747 N.2     1  ZINC001127302705   -0.2500
     19 N19        -9.3885    1.2975   54.7842 N.pl3   1  ZINC001127302705   -0.2800
     20 C20        -9.4059    1.6872   53.3722 C.3     1  ZINC001127302705    0.1600
     21 C21        -8.3403    0.9251   52.6276 C.ar    1  ZINC001127302705   -0.1200
     22 C22        -7.0199    1.3263   52.7075 C.ar    1  ZINC001127302705   -0.1000
     23 C23        -6.0424    0.6272   52.0245 C.ar    1  ZINC001127302705   -0.1200
     24 C24        -6.3853   -0.4736   51.2618 C.ar    1  ZINC001127302705   -0.1100
     25 C25        -7.7055   -0.8755   51.1825 C.ar    1  ZINC001127302705   -0.1200
     26 C26        -8.6824   -0.1788   51.8691 C.ar    1  ZINC001127302705   -0.0800
     27 C27        -8.7182    1.9510   55.7575 C.2     1  ZINC001127302705   -0.0200
     28 C28        -8.9530    1.2931   56.9171 C.2     1  ZINC001127302705   -0.1800
     29 H29        -8.7231    0.0147   60.6148 H       1  ZINC001127302705    0.0500
     30 H30        -8.6388   -0.5590   62.2977 H       1  ZINC001127302705    0.0600
     31 H31        -8.1725   -1.6415   60.9641 H       1  ZINC001127302705    0.0500
     32 H32       -10.4275   -2.2098   61.8247 H       1  ZINC001127302705    0.0900
     33 H33       -10.9781   -0.5535   61.4755 H       1  ZINC001127302705    0.0800
     34 H34       -10.3375   -3.8569   60.1065 H       1  ZINC001127302705    0.0700
     35 H35       -10.1574   -3.3902   58.3982 H       1  ZINC001127302705    0.0500
     36 H36        -8.8639   -3.0192   59.5633 H       1  ZINC001127302705    0.0800
     37 H37       -12.4962   -0.9427   59.1062 H       1  ZINC001127302705    0.0800
     38 H38       -12.3312   -2.6983   58.8636 H       1  ZINC001127302705    0.0700
     39 H39       -16.7972   -3.3393   59.6691 H       1  ZINC001127302705    0.1700
     40 H40       -17.8623   -1.5572   60.9870 H       1  ZINC001127302705    0.1500
     41 H41       -16.4393    0.0294   62.2677 H       1  ZINC001127302705    0.1500
     42 H42        -9.5270   -0.0099   59.1585 H       1  ZINC001127302705    0.4100
     43 H43       -10.3820    1.4591   52.9442 H       1  ZINC001127302705    0.1000
     44 H44        -9.2134    2.7569   53.2880 H       1  ZINC001127302705    0.1100
     45 H45        -6.7520    2.1863   53.3034 H       1  ZINC001127302705    0.1200
     46 H46        -5.0109    0.9411   52.0865 H       1  ZINC001127302705    0.1300
     47 H47        -5.6217   -1.0194   50.7276 H       1  ZINC001127302705    0.1200
     48 H48        -7.9734   -1.7352   50.5864 H       1  ZINC001127302705    0.1300
     49 H49        -9.7139   -0.4927   51.8071 H       1  ZINC001127302705    0.1300
     50 H50        -8.1120    2.8362   55.6346 H       1  ZINC001127302705    0.1800
     51 H51        -8.5734    1.5405   57.8974 H       1  ZINC001127302705    0.1600
@<TRIPOS>BOND
     1     1     2    1
     2     1    29    1
     3     1    30    1
     4     1    31    1
     5     2     3    1
     6     2    32    1
     7     2    33    1
     8     3     4    1
     9     3     5    1
    10     3    14    1
    11     4    34    1
    12     4    35    1
    13     4    36    1
    14     5     6    1
    15     5    37    1
    16     5    38    1
    17     6     7    1
    18     7    12   ar
    19     7     8   ar
    20     8     9   ar
    21     9    10   ar
    22     9    39    1
    23    10    11   ar
    24    10    40    1
    25    11    12   ar
    26    11    41    1
    27    12    13    1
    28    14    15   am
    29    14    42    1
    30    15    16    2
    31    15    17    1
    32    17    28    1
    33    17    18    2
    34    18    19    1
    35    19    20    1
    36    19    27    1
    37    20    21    1
    38    20    43    1
    39    20    44    1
    40    21    26   ar
    41    21    22   ar
    42    22    23   ar
    43    22    45    1
    44    23    24   ar
    45    23    46    1
    46    24    25   ar
    47    24    47    1
    48    25    26   ar
    49    25    48    1
    50    26    49    1
    51    27    28    2
    52    27    50    1
    53    28    51    1
@<TRIPOS>SUBSTRUCTURE
     1 ZINC001127302705        1 TEMP              0 ****  ****    0 ROOT


##########                                Name:    ZINC001058079801
##########                DOCK_Rotatable_Bonds:                   7
##########                         Heavy_Atoms:                  24
##########                    Molecular_Weight:             349.457
##########                DOCK_Rotatable_Bonds:                   7
##########                       Formal_Charge:           0.0200001
##########                     HBond_Acceptors:                   8
##########                        HBond_Donors:                   0
##########                         Heavy_Atoms:                  24
##########                          Grid_Score:          -30.316277
##########                     Grid_vdw_energy:          -30.821096
##########                      Grid_es_energy:            0.504820
##########           Internal_energy_repulsive:           17.148499

@<TRIPOS>MOLECULE
ZINC001058079801
 47 49 1 0 0
SMALL
USER_CHARGES


@<TRIPOS>ATOM
      1 C1         -8.9990    0.1002   53.4770 C.3     1  ZINC001058079801   -0.1500
      2 C2         -7.9993    1.2046   53.1275 C.3     1  ZINC001058079801   -0.1200
      3 C3         -6.7533    0.5827   52.4939 C.3     1  ZINC001058079801   -0.0300
      4 C4         -5.7006    1.6451   52.3083 C.2     1  ZINC001058079801    0.2900
      5 N5         -5.5958    2.6393   53.1414 N.2     1  ZINC001058079801   -0.4800
      6 S6         -4.3043    3.5853   52.5710 S.3     1  ZINC001058079801    0.1900
      7 C7         -3.9752    2.5683   51.2198 C.2     1  ZINC001058079801    0.2700
      8 N8         -2.9945    2.7357   50.2588 N.3     1  ZINC001058079801   -0.4300
      9 C9         -3.5633    2.6572   48.9072 C.3     1  ZINC001058079801    0.0700
     10 C10        -2.4816    2.9903   47.8771 C.3     1  ZINC001058079801   -0.1300
     11 C11        -1.3233    1.9993   48.0219 C.3     1  ZINC001058079801    0.1300
     12 N12        -0.2592    2.3487   47.0776 N.am    1  ZINC001058079801   -0.6100
     13 C13         0.6054    3.5014   47.3418 C.3     1  ZINC001058079801    0.0700
     14 C14        -0.0756    1.6095   45.9656 C.2     1  ZINC001058079801    0.5200
     15 O15         0.8043    1.8996   45.1830 O.2     1  ZINC001058079801   -0.5300
     16 C16        -0.9638    0.4226   45.6946 C.3     1  ZINC001058079801   -0.0600
     17 C17        -0.5445   -0.7291   46.5712 C.2     1  ZINC001058079801   -0.1900
     18 C18        -1.3293   -1.6824   47.1279 C.2     1  ZINC001058079801   -0.0400
     19 O19        -0.5130   -2.4899   47.8194 O.3     1  ZINC001058079801    0.1000
     20 N20         0.6394   -2.1325   47.7382 N.2     1  ZINC001058079801   -0.3600
     21 C21         0.7600   -1.0684   46.9980 C.2     1  ZINC001058079801    0.0000
     22 C22        -0.7806    2.0663   49.4521 C.3     1  ZINC001058079801   -0.1200
     23 C23        -1.9116    1.7600   50.4366 C.3     1  ZINC001058079801    0.0400
     24 N24        -4.8565    1.5941   51.3041 N.2     1  ZINC001058079801   -0.5300
     25 H25        -9.8867    0.5433   53.9284 H       1  ZINC001058079801    0.0600
     26 H26        -9.2809   -0.4348   52.5702 H       1  ZINC001058079801    0.0600
     27 H27        -8.5414   -0.5944   54.1813 H       1  ZINC001058079801    0.0600
     28 H28        -8.4569    1.8993   52.4231 H       1  ZINC001058079801    0.0700
     29 H29        -7.7174    1.7397   54.0343 H       1  ZINC001058079801    0.0700
     30 H30        -6.3672   -0.2014   53.1453 H       1  ZINC001058079801    0.1000
     31 H31        -7.0129    0.1554   51.5253 H       1  ZINC001058079801    0.0900
     32 H32        -3.9370    1.6491   48.7285 H       1  ZINC001058079801    0.0600
     33 H33        -4.3831    3.3698   48.8163 H       1  ZINC001058079801    0.1000
     34 H34        -2.9001    2.9167   46.8733 H       1  ZINC001058079801    0.0800
     35 H35        -2.1171    4.0034   48.0466 H       1  ZINC001058079801    0.0800
     36 H36        -1.6789    0.9904   47.8131 H       1  ZINC001058079801    0.1000
     37 H37         1.4727    3.1805   47.9186 H       1  ZINC001058079801    0.0600
     38 H38         0.9365    3.9316   46.3966 H       1  ZINC001058079801    0.0800
     39 H39         0.0501    4.2501   47.9069 H       1  ZINC001058079801    0.0800
     40 H40        -1.9989    0.6865   45.9117 H       1  ZINC001058079801    0.1100
     41 H41        -0.8746    0.1336   44.6475 H       1  ZINC001058079801    0.1100
     42 H42        -2.4012   -1.7739   47.0332 H       1  ZINC001058079801    0.2200
     43 H43         1.6746   -0.5446   46.7623 H       1  ZINC001058079801    0.1900
     44 H44         0.0163    1.3325   49.5737 H       1  ZINC001058079801    0.0900
     45 H45        -0.3893    3.0649   49.6465 H       1  ZINC001058079801    0.0800
     46 H46        -1.5316    1.8209   51.4565 H       1  ZINC001058079801    0.1000
     47 H47        -2.2930    0.7561   50.2506 H       1  ZINC001058079801    0.0700
@<TRIPOS>BOND
     1     1     2    1
     2     1    25    1
     3     1    26    1
     4     1    27    1
     5     2     3    1
     6     2    28    1
     7     2    29    1
     8     3     4    1
     9     3    30    1
    10     3    31    1
    11     4    24    1
    12     4     5    2
    13     5     6    1
    14     6     7    1
    15     7     8    1
    16     7    24    2
    17     8    23    1
    18     8     9    1
    19     9    10    1
    20     9    32    1
    21     9    33    1
    22    10    11    1
    23    10    34    1
    24    10    35    1
    25    11    12    1
    26    11    22    1
    27    11    36    1
    28    12    13    1
    29    12    14   am
    30    13    37    1
    31    13    38    1
    32    13    39    1
    33    14    15    2
    34    14    16    1
    35    16    17    1
    36    16    40    1
    37    16    41    1
    38    17    21    1
    39    17    18    2
    40    18    19    1
    41    18    42    1
    42    19    20    1
    43    20    21    2
    44    21    43    1
    45    22    23    1
    46    22    44    1
    47    22    45    1
    48    23    46    1
    49    23    47    1
@<TRIPOS>SUBSTRUCTURE
     1 ZINC001058079801        1 TEMP              0 ****  ****    0 ROOT


##########                                Name:    ZINC000186316242
##########                DOCK_Rotatable_Bonds:                   7
##########                         Heavy_Atoms:                  28
##########                    Molecular_Weight:             392.525
##########                DOCK_Rotatable_Bonds:                   7
##########                       Formal_Charge:         -0.00999981
##########                     HBond_Acceptors:                   6
##########                        HBond_Donors:                   0
##########                         Heavy_Atoms:                  28
##########                          Grid_Score:          -30.313360
##########                     Grid_vdw_energy:          -30.697365
##########                      Grid_es_energy:            0.384005
##########           Internal_energy_repulsive:          120.728111

@<TRIPOS>MOLECULE
ZINC000186316242
 52 55 1 0 0
SMALL
USER_CHARGES


@<TRIPOS>ATOM
      1 C1         -4.8528    1.6058   51.3958 C.3     1  ZINC000186316242   -0.1500
      2 C2         -5.9944    0.5947   51.5203 C.3     1  ZINC000186316242    0.1000
      3 N3         -6.7916    0.9023   52.7103 N.am    1  ZINC000186316242   -0.5900
      4 C4         -6.4556    1.9448   53.4956 C.2     1  ZINC000186316242    0.5900
      5 O5         -5.4905    2.6303   53.2164 O.2     1  ZINC000186316242   -0.5000
      6 C6         -7.2574    2.2541   54.6925 C.2     1  ZINC000186316242    0.0100
      7 C7         -8.0593    3.3532   54.7741 C.2     1  ZINC000186316242   -0.2100
      8 S8         -8.8232    3.3722   56.3041 S.3     1  ZINC000186316242    0.2000
      9 C9         -8.0074    1.8786   56.7514 C.2     1  ZINC000186316242    0.0700
     10 C10        -8.1577    1.1790   58.0459 C.ar    1  ZINC000186316242    0.1900
     11 C11        -8.8089    1.8131   59.1035 C.ar    1  ZINC000186316242   -0.1500
     12 C12        -8.9421    1.1452   60.3086 C.ar    1  ZINC000186316242   -0.0700
     13 C13        -8.4197   -0.1356   60.4173 C.ar    1  ZINC000186316242   -0.1600
     14 C14        -7.7854   -0.7051   59.3276 C.ar    1  ZINC000186316242    0.1100
     15 N15        -7.6762   -0.0504   58.1903 N.ar    1  ZINC000186316242   -0.4500
     16 N16        -7.2580    1.4823   55.7689 N.2     1  ZINC000186316242   -0.3900
     17 C17        -7.9541    0.0767   53.0467 C.3     1  ZINC000186316242    0.1400
     18 H18        -7.8792   -0.2805   54.0738 H       1  ZINC000186316242    0.1000
     19 C19        -8.0651   -1.1168   52.0705 C.3     1  ZINC000186316242   -0.1300
     20 C20        -9.5919   -1.2277   51.8310 C.3     1  ZINC000186316242    0.0400
     21 N21       -10.0350    0.1896   51.8007 N.3     1  ZINC000186316242   -0.4900
     22 C22       -11.4767    0.2962   52.0615 C.3     1  ZINC000186316242    0.0800
     23 C23       -12.1180    1.1490   50.9973 C.ar    1  ZINC000186316242   -0.0700
     24 C24       -11.5746    2.3789   50.6767 C.ar    1  ZINC000186316242   -0.1000
     25 C25       -12.1629    3.1612   49.7005 C.ar    1  ZINC000186316242   -0.1200
     26 C26       -13.2943    2.7133   49.0447 C.ar    1  ZINC000186316242   -0.1200
     27 C27       -13.8371    1.4829   49.3647 C.ar    1  ZINC000186316242   -0.1200
     28 C28       -13.2465    0.6988   50.3379 C.ar    1  ZINC000186316242   -0.1100
     29 C29        -9.2539    0.8796   52.8535 C.3     1  ZINC000186316242    0.0400
     30 H30        -4.2597    1.3769   50.5104 H       1  ZINC000186316242    0.0700
     31 H31        -5.2657    2.6107   51.3068 H       1  ZINC000186316242    0.0500
     32 H32        -4.2200    1.5502   52.2815 H       1  ZINC000186316242    0.0400
     33 H33        -6.6273    0.6504   50.6347 H       1  ZINC000186316242    0.1200
     34 H34        -5.5816   -0.4102   51.6094 H       1  ZINC000186316242    0.0700
     35 H35        -8.1910    4.0927   53.9981 H       1  ZINC000186316242    0.1900
     36 H36        -9.2034    2.8114   58.9841 H       1  ZINC000186316242    0.1400
     37 H37        -9.4411    1.6107   61.1456 H       1  ZINC000186316242    0.1400
     38 H38        -8.5070   -0.6828   61.3443 H       1  ZINC000186316242    0.1400
     39 H39        -7.3775   -1.7017   59.4096 H       1  ZINC000186316242    0.1600
     40 H40        -7.5430   -0.9023   51.1380 H       1  ZINC000186316242    0.0900
     41 H41        -7.6795   -2.0274   52.5290 H       1  ZINC000186316242    0.0700
     42 H42        -9.7974   -1.7154   50.8781 H       1  ZINC000186316242    0.0800
     43 H43       -10.0718   -1.7634   52.6499 H       1  ZINC000186316242    0.0400
     44 H44       -11.9228   -0.6982   52.0481 H       1  ZINC000186316242    0.0400
     45 H45       -11.6366    0.7529   53.0383 H       1  ZINC000186316242    0.0800
     46 H46       -10.6906    2.7289   51.1891 H       1  ZINC000186316242    0.1200
     47 H47       -11.7387    4.1224   49.4505 H       1  ZINC000186316242    0.1200
     48 H48       -13.7544    3.3247   48.2825 H       1  ZINC000186316242    0.1200
     49 H49       -14.7213    1.1331   48.8525 H       1  ZINC000186316242    0.1200
     50 H50       -13.6706   -0.2625   50.5878 H       1  ZINC000186316242    0.1200
     51 H51        -9.8218    0.9004   53.7836 H       1  ZINC000186316242    0.0500
     52 H52        -9.0189    1.8954   52.5359 H       1  ZINC000186316242    0.0800
@<TRIPOS>BOND
     1     1     2    1
     2     1    30    1
     3     1    31    1
     4     1    32    1
     5     2     3    1
     6     2    33    1
     7     2    34    1
     8     3     4   am
     9     3    17    1
    10     4     5    2
    11     4     6    1
    12     6    16    1
    13     6     7    2
    14     7     8    1
    15     7    35    1
    16     8     9    1
    17     9    10    1
    18     9    16    2
    19    10    15   ar
    20    10    11   ar
    21    11    12   ar
    22    11    36    1
    23    12    13   ar
    24    12    37    1
    25    13    14   ar
    26    13    38    1
    27    14    15   ar
    28    14    39    1
    29    17    18    1
    30    17    29    1
    31    17    19    1
    32    19    20    1
    33    19    40    1
    34    19    41    1
    35    20    21    1
    36    20    42    1
    37    20    43    1
    38    21    22    1
    39    21    29    1
    40    22    23    1
    41    22    44    1
    42    22    45    1
    43    23    28   ar
    44    23    24   ar
    45    24    25   ar
    46    24    46    1
    47    25    26   ar
    48    25    47    1
    49    26    27   ar
    50    26    48    1
    51    27    28   ar
    52    27    49    1
    53    28    50    1
    54    29    51    1
    55    29    52    1
@<TRIPOS>SUBSTRUCTURE
     1 ZINC000186316242        1 TEMP              0 ****  ****    0 ROOT


##########                                Name:    ZINC000652498551
##########                DOCK_Rotatable_Bonds:                   6
##########                         Heavy_Atoms:                  23
##########                    Molecular_Weight:             388.277
##########                DOCK_Rotatable_Bonds:                   6
##########                       Formal_Charge:          -0.0400001
##########                     HBond_Acceptors:                   5
##########                        HBond_Donors:                   1
##########                         Heavy_Atoms:                  23
##########                          Grid_Score:          -30.303905
##########                     Grid_vdw_energy:          -28.071880
##########                      Grid_es_energy:           -2.232025
##########           Internal_energy_repulsive:           24.322245

@<TRIPOS>MOLECULE
ZINC000652498551
 46 47 1 0 0
SMALL
USER_CHARGES


@<TRIPOS>ATOM
      1 C1         -2.4722    1.5365   47.0260 C.3     1  ZINC000652498551   -0.1300
      2 C2         -1.3211    1.1369   46.1006 C.3     1  ZINC000652498551   -0.1300
      3 C3         -1.8755    0.3686   44.8993 C.3     1  ZINC000652498551   -0.1300
      4 C4         -0.6099    2.3755   45.6200 C.2     1  ZINC000652498551    0.5000
      5 O5          0.2779    2.8691   46.2943 O.co2   1  ZINC000652498551   -0.7000
      6 O6         -0.9223    2.8841   44.5568 O.co2   1  ZINC000652498551   -0.6700
      7 C7         -0.3376    0.2481   46.8646 C.3     1  ZINC000652498551   -0.0600
      8 H8          0.6493    0.3208   46.4075 H       1  ZINC000652498551    0.0700
      9 C9         -0.8178   -1.2052   46.8162 C.3     1  ZINC000652498551   -0.1500
     10 C10         0.1301   -2.0736   47.6486 C.3     1  ZINC000652498551   -0.1400
     11 C11         0.1889   -1.5296   49.0775 C.3     1  ZINC000652498551   -0.0100
     12 N12         0.6799   -0.1464   49.0586 N.4     1  ZINC000652498551   -0.3800
     13 H13         1.5820   -0.1170   48.6076 H       1  ZINC000652498551    0.4200
     14 C14         0.8068    0.3456   50.4369 C.3     1  ZINC000652498551    0.0000
     15 C15         1.5530    1.6813   50.4349 C.3     1  ZINC000652498551    0.0200
     16 O16         0.6116    2.7530   50.5211 O.3     1  ZINC000652498551   -0.3100
     17 C17         0.0066    2.9475   51.7224 C.ar    1  ZINC000652498551    0.1600
     18 C18        -1.3767    2.9215   51.8152 C.ar    1  ZINC000652498551   -0.2300
     19 C19        -1.9907    3.1199   53.0396 C.ar    1  ZINC000652498551    0.1500
     20 F20        -3.3383    3.0948   53.1312 F       1  ZINC000652498551   -0.1200
     21 C21        -1.2241    3.3439   54.1706 C.ar    1  ZINC000652498551   -0.1600
     22 C22         0.1561    3.3706   54.0786 C.ar    1  ZINC000652498551   -0.0300
     23 Br23        1.2001    3.6766   55.6251 Br      1  ZINC000652498551   -0.0100
     24 C24         0.7727    3.1670   52.8583 C.ar    1  ZINC000652498551   -0.1300
     25 C25        -0.2606    0.7069   48.3223 C.3     1  ZINC000652498551   -0.0200
     26 H26        -2.9867    0.6406   47.3736 H       1  ZINC000652498551    0.0400
     27 H27        -2.0772    2.0838   47.8817 H       1  ZINC000652498551    0.0500
     28 H28        -3.1729    2.1697   46.4817 H       1  ZINC000652498551    0.0600
     29 H29        -2.5762    1.0018   44.3550 H       1  ZINC000652498551    0.0700
     30 H30        -1.0555    0.0841   44.2400 H       1  ZINC000652498551    0.0400
     31 H31        -2.3900   -0.5273   45.2469 H       1  ZINC000652498551    0.0500
     32 H32        -1.8257   -1.2698   47.2259 H       1  ZINC000652498551    0.1300
     33 H33        -0.8196   -1.5542   45.7836 H       1  ZINC000652498551    0.0800
     34 H34        -0.2364   -3.1000   47.6646 H       1  ZINC000652498551    0.1000
     35 H35         1.1270   -2.0493   47.2084 H       1  ZINC000652498551    0.0700
     36 H36        -0.8084   -1.5546   49.5168 H       1  ZINC000652498551    0.1300
     37 H37         0.8627   -2.1457   49.6729 H       1  ZINC000652498551    0.1100
     38 H38        -0.1854    0.4844   50.8660 H       1  ZINC000652498551    0.1400
     39 H39         1.3618   -0.3797   51.0319 H       1  ZINC000652498551    0.1500
     40 H40         2.2285    1.7215   51.2894 H       1  ZINC000652498551    0.1100
     41 H41         2.1271    1.7754   49.5131 H       1  ZINC000652498551    0.0900
     42 H42        -1.9745    2.7468   50.9329 H       1  ZINC000652498551    0.1500
     43 H43        -1.7040    3.4983   55.1256 H       1  ZINC000652498551    0.1500
     44 H44         1.8501    3.1876   52.7875 H       1  ZINC000652498551    0.1500
     45 H45         0.0815    1.7411   48.3608 H       1  ZINC000652498551    0.1100
     46 H46        -1.2484    0.6346   48.7771 H       1  ZINC000652498551    0.1700
@<TRIPOS>BOND
     1     1     2    1
     2     1    26    1
     3     1    27    1
     4     1    28    1
     5     2     3    1
     6     2     4    1
     7     2     7    1
     8     3    29    1
     9     3    30    1
    10     3    31    1
    11     4     5   ar
    12     4     6   ar
    13     7     8    1
    14     7    25    1
    15     7     9    1
    16     9    10    1
    17     9    32    1
    18     9    33    1
    19    10    11    1
    20    10    34    1
    21    10    35    1
    22    11    12    1
    23    11    36    1
    24    11    37    1
    25    12    13    1
    26    12    14    1
    27    12    25    1
    28    14    15    1
    29    14    38    1
    30    14    39    1
    31    15    16    1
    32    15    40    1
    33    15    41    1
    34    16    17    1
    35    17    24   ar
    36    17    18   ar
    37    18    19   ar
    38    18    42    1
    39    19    20    1
    40    19    21   ar
    41    21    22   ar
    42    21    43    1
    43    22    23    1
    44    22    24   ar
    45    24    44    1
    46    25    45    1
    47    25    46    1
@<TRIPOS>SUBSTRUCTURE
     1 ZINC000652498551        1 TEMP              0 ****  ****    0 ROOT


##########                                Name:    ZINC000501032137
##########                DOCK_Rotatable_Bonds:                  10
##########                         Heavy_Atoms:                  25
##########                    Molecular_Weight:             407.307
##########                DOCK_Rotatable_Bonds:                  10
##########                       Formal_Charge:           0.0099998
##########                     HBond_Acceptors:                   5
##########                        HBond_Donors:                   1
##########                         Heavy_Atoms:                  25
##########                          Grid_Score:          -30.275227
##########                     Grid_vdw_energy:          -29.642424
##########                      Grid_es_energy:           -0.632803
##########           Internal_energy_repulsive:            9.991099

@<TRIPOS>MOLECULE
ZINC000501032137
 48 50 1 0 0
SMALL
USER_CHARGES


@<TRIPOS>ATOM
      1 C1         -9.3092    1.0163   64.4826 C.3     1  ZINC000501032137   -0.1500
      2 C2         -7.9002    0.6828   63.9878 C.3     1  ZINC000501032137   -0.1200
      3 C3         -7.8914   -0.7227   63.3832 C.3     1  ZINC000501032137    0.0600
      4 O4         -8.9204   -0.8233   62.3969 O.3     1  ZINC000501032137   -0.3800
      5 C5         -8.4351   -1.0452   61.0713 C.3     1  ZINC000501032137    0.0500
      6 C6         -9.6129   -1.0743   60.0951 C.3     1  ZINC000501032137    0.1600
      7 H7        -10.3072   -0.2703   60.3394 H       1  ZINC000501032137    0.1000
      8 C8        -10.3324   -2.4201   60.2040 C.3     1  ZINC000501032137   -0.0900
      9 C9        -11.8165   -2.2104   60.0482 C.ar    1  ZINC000501032137   -0.0600
     10 C10       -12.5261   -1.5401   61.0269 C.ar    1  ZINC000501032137   -0.0900
     11 C11       -13.8878   -1.3473   60.8845 C.ar    1  ZINC000501032137   -0.1100
     12 C12       -14.5400   -1.8248   59.7637 C.ar    1  ZINC000501032137   -0.0900
     13 C13       -13.8302   -2.4958   58.7839 C.ar    1  ZINC000501032137   -0.0800
     14 Br14      -14.7222   -3.1494   57.2498 Br      1  ZINC000501032137   -0.0600
     15 C15       -12.4671   -2.6834   58.9240 C.ar    1  ZINC000501032137   -0.0800
     16 N16        -9.1186   -0.8941   58.7279 N.am    1  ZINC000501032137   -0.7100
     17 C17        -8.7289    0.3257   58.3075 C.2     1  ZINC000501032137    0.6100
     18 O18        -8.7863    1.2764   59.0636 O.2     1  ZINC000501032137   -0.5200
     19 C19        -8.2332    0.5074   56.9311 C.2     1  ZINC000501032137   -0.0800
     20 C20        -8.6449   -0.1734   55.8270 C.2     1  ZINC000501032137    0.0800
     21 C21        -9.6929   -1.2553   55.7792 C.3     1  ZINC000501032137   -0.0800
     22 C22       -11.1498   -0.8205   55.6082 C.3     1  ZINC000501032137   -0.1700
     23 C23       -10.4090   -1.4870   54.4471 C.3     1  ZINC000501032137   -0.1500
     24 O24        -7.9400    0.3026   54.7882 O.3     1  ZINC000501032137   -0.2000
     25 C25        -7.1134    1.2547   55.2435 C.2     1  ZINC000501032137    0.1800
     26 N26        -7.2821    1.3914   56.5246 N.2     1  ZINC000501032137   -0.4600
     27 H27       -10.0070    0.9763   63.6463 H       1  ZINC000501032137    0.0600
     28 H28        -9.6086    0.2928   65.2408 H       1  ZINC000501032137    0.0600
     29 H29        -9.3154    2.0176   64.9134 H       1  ZINC000501032137    0.0600
     30 H30        -7.6007    1.4064   63.2296 H       1  ZINC000501032137    0.0700
     31 H31        -7.2024    0.7230   64.8242 H       1  ZINC000501032137    0.0700
     32 H32        -6.9235   -0.9125   62.9194 H       1  ZINC000501032137    0.0500
     33 H33        -8.0681   -1.4572   64.1690 H       1  ZINC000501032137    0.0500
     34 H34        -7.7535   -0.2409   60.7944 H       1  ZINC000501032137    0.0700
     35 H35        -7.9073   -1.9982   61.0323 H       1  ZINC000501032137    0.0600
     36 H36        -9.9755   -3.0874   59.4196 H       1  ZINC000501032137    0.0900
     37 H37       -10.1284   -2.8634   61.1786 H       1  ZINC000501032137    0.0800
     38 H38       -12.0168   -1.1671   61.9032 H       1  ZINC000501032137    0.1200
     39 H39       -14.4419   -0.8238   61.6496 H       1  ZINC000501032137    0.1300
     40 H40       -15.6038   -1.6744   59.6527 H       1  ZINC000501032137    0.1300
     41 H41       -11.9126   -3.2068   58.1592 H       1  ZINC000501032137    0.1200
     42 H42        -9.0717   -1.6527   58.1252 H       1  ZINC000501032137    0.4100
     43 H43        -9.4974   -2.1270   56.4038 H       1  ZINC000501032137    0.1500
     44 H44       -11.9132   -1.4062   56.1205 H       1  ZINC000501032137    0.1100
     45 H45       -11.3503    0.2479   55.5302 H       1  ZINC000501032137    0.1000
     46 H46       -10.1222   -0.8568   53.6053 H       1  ZINC000501032137    0.1000
     47 H47       -10.6850   -2.5109   54.1955 H       1  ZINC000501032137    0.1100
     48 H48        -6.4195    1.8212   54.6401 H       1  ZINC000501032137    0.2500
@<TRIPOS>BOND
     1     1     2    1
     2     1    27    1
     3     1    28    1
     4     1    29    1
     5     2     3    1
     6     2    30    1
     7     2    31    1
     8     3     4    1
     9     3    32    1
    10     3    33    1
    11     4     5    1
    12     5     6    1
    13     5    34    1
    14     5    35    1
    15     6     7    1
    16     6     8    1
    17     6    16    1
    18     8     9    1
    19     8    36    1
    20     8    37    1
    21     9    15   ar
    22     9    10   ar
    23    10    11   ar
    24    10    38    1
    25    11    12   ar
    26    11    39    1
    27    12    13   ar
    28    12    40    1
    29    13    14    1
    30    13    15   ar
    31    15    41    1
    32    16    17   am
    33    16    42    1
    34    17    18    2
    35    17    19    1
    36    19    26    1
    37    19    20    2
    38    20    21    1
    39    20    24    1
    40    21    23    1
    41    21    22    1
    42    21    43    1
    43    22    23    1
    44    22    44    1
    45    22    45    1
    46    23    46    1
    47    23    47    1
    48    24    25    1
    49    25    26    2
    50    25    48    1
@<TRIPOS>SUBSTRUCTURE
     1 ZINC000501032137        1 TEMP              0 ****  ****    0 ROOT


##########                                Name:    ZINC000506388363
##########                DOCK_Rotatable_Bonds:                   5
##########                         Heavy_Atoms:                  29
##########                    Molecular_Weight:             416.858
##########                DOCK_Rotatable_Bonds:                   5
##########                       Formal_Charge:         7.07805e-07
##########                     HBond_Acceptors:                   8
##########                        HBond_Donors:                   1
##########                         Heavy_Atoms:                  29
##########                          Grid_Score:          -30.274214
##########                     Grid_vdw_energy:          -28.706514
##########                      Grid_es_energy:           -1.567699
##########           Internal_energy_repulsive:           17.020256

@<TRIPOS>MOLECULE
ZINC000506388363
 48 51 1 0 0
SMALL
USER_CHARGES


@<TRIPOS>ATOM
      1 O1        -10.3810    2.8470   53.3130 O.2     1  ZINC000506388363   -0.5300
      2 C2         -9.7556    1.9147   53.7791 C.2     1  ZINC000506388363    0.5600
      3 C3         -9.2883    0.8236   52.8975 C.ar    1  ZINC000506388363   -0.1200
      4 C4        -10.2101    0.0540   52.1863 C.ar    1  ZINC000506388363   -0.0900
      5 C5         -9.7681   -0.9626   51.3647 C.ar    1  ZINC000506388363   -0.1100
      6 C6         -8.4144   -1.2206   51.2452 C.ar    1  ZINC000506388363   -0.0900
      7 C7         -7.4941   -0.4611   51.9479 C.ar    1  ZINC000506388363   -0.0400
      8 Cl8        -5.7972   -0.7923   51.7909 Cl      1  ZINC000506388363   -0.0600
      9 C9         -7.9232    0.5627   52.7688 C.ar    1  ZINC000506388363   -0.0600
     10 N10        -9.4834    1.8784   55.0986 N.am    1  ZINC000506388363   -0.6100
     11 C11        -9.9441    2.9503   55.9941 C.3     1  ZINC000506388363    0.1000
     12 C12       -10.6745    2.3128   57.1809 C.3     1  ZINC000506388363    0.0400
     13 N13        -9.8017    1.3114   57.8082 N.3     1  ZINC000506388363   -0.5300
     14 C14       -10.3956    0.8000   59.0507 C.3     1  ZINC000506388363    0.1200
     15 C15        -9.5736   -0.3550   59.5620 C.2     1  ZINC000506388363   -0.2100
     16 C16        -8.3039   -0.2875   60.0183 C.2     1  ZINC000506388363    0.0600
     17 N17        -7.9250   -1.5314   60.3820 N.pl3   1  ZINC000506388363   -0.4700
     18 N18        -8.9966   -2.4012   60.1431 N.2     1  ZINC000506388363   -0.2700
     19 C19        -9.9948   -1.6960   59.6546 C.2     1  ZINC000506388363    0.1300
     20 C20       -11.3252   -2.2224   59.2608 C.ar    1  ZINC000506388363   -0.0700
     21 C21       -11.4268   -3.1988   58.2696 C.ar    1  ZINC000506388363    0.1500
     22 F22       -10.3136   -3.6686   57.6653 F       1  ZINC000506388363   -0.1200
     23 C23       -12.6694   -3.6849   57.9074 C.ar    1  ZINC000506388363   -0.1600
     24 C24       -13.8099   -3.2055   58.5252 C.ar    1  ZINC000506388363   -0.0500
     25 C25       -13.7161   -2.2376   59.5085 C.ar    1  ZINC000506388363   -0.1600
     26 C26       -12.4791   -1.7471   59.8842 C.ar    1  ZINC000506388363    0.1600
     27 F27       -12.3890   -0.8016   60.8449 F       1  ZINC000506388363   -0.1200
     28 C28        -9.4964    0.2144   56.8802 C.3     1  ZINC000506388363    0.0400
     29 C29        -8.7231    0.7628   55.6821 C.3     1  ZINC000506388363    0.1200
     30 H30       -11.2674    0.2537   52.2791 H       1  ZINC000506388363    0.1400
     31 H31       -10.4808   -1.5585   50.8140 H       1  ZINC000506388363    0.1400
     32 H32        -8.0740   -2.0181   50.6014 H       1  ZINC000506388363    0.1400
     33 H33        -7.2049    1.1548   53.3162 H       1  ZINC000506388363    0.1400
     34 H34        -9.0874    3.5198   56.3545 H       1  ZINC000506388363    0.0800
     35 H35       -10.6254    3.6094   55.4561 H       1  ZINC000506388363    0.1000
     36 H36       -10.9262    3.0834   57.9095 H       1  ZINC000506388363    0.0900
     37 H37       -11.5871    1.8311   56.8301 H       1  ZINC000506388363    0.0400
     38 H38       -10.4127    1.5929   59.7984 H       1  ZINC000506388363    0.1000
     39 H39       -11.4135    0.4630   58.8550 H       1  ZINC000506388363    0.0400
     40 H40        -7.6983    0.6046   60.0809 H       1  ZINC000506388363    0.1800
     41 H41        -7.0604   -1.7797   60.7453 H       1  ZINC000506388363    0.4400
     42 H42       -12.7496   -4.4407   57.1399 H       1  ZINC000506388363    0.1500
     43 H43       -14.7782   -3.5883   58.2384 H       1  ZINC000506388363    0.1500
     44 H44       -14.6106   -1.8670   59.9869 H       1  ZINC000506388363    0.1500
     45 H45        -8.8939   -0.5369   57.3908 H       1  ZINC000506388363    0.0900
     46 H46       -10.4255   -0.2380   56.5336 H       1  ZINC000506388363    0.0400
     47 H47        -8.5945   -0.0234   54.9383 H       1  ZINC000506388363    0.1000
     48 H48        -7.7481    1.1238   56.0097 H       1  ZINC000506388363    0.0800
@<TRIPOS>BOND
     1     1     2    2
     2     2     3    1
     3     2    10   am
     4     3     9   ar
     5     3     4   ar
     6     4     5   ar
     7     4    30    1
     8     5     6   ar
     9     5    31    1
    10     6     7   ar
    11     6    32    1
    12     7     8    1
    13     7     9   ar
    14     9    33    1
    15    10    29    1
    16    10    11    1
    17    11    12    1
    18    11    34    1
    19    11    35    1
    20    12    13    1
    21    12    36    1
    22    12    37    1
    23    13    14    1
    24    13    28    1
    25    14    15    1
    26    14    38    1
    27    14    39    1
    28    15    19    1
    29    15    16    2
    30    16    17    1
    31    16    40    1
    32    17    18    1
    33    17    41    1
    34    18    19    2
    35    19    20    1
    36    20    26   ar
    37    20    21   ar
    38    21    22    1
    39    21    23   ar
    40    23    24   ar
    41    23    42    1
    42    24    25   ar
    43    24    43    1
    44    25    26   ar
    45    25    44    1
    46    26    27    1
    47    28    29    1
    48    28    45    1
    49    28    46    1
    50    29    47    1
    51    29    48    1
@<TRIPOS>SUBSTRUCTURE
     1 ZINC000506388363        1 TEMP              0 ****  ****    0 ROOT


##########                                Name:     oleObject17.pdb
##########                DOCK_Rotatable_Bonds:                   8
##########                         Heavy_Atoms:                  29
##########                    Molecular_Weight:             435.393
##########                DOCK_Rotatable_Bonds:                   8
##########                       Formal_Charge:         0.000400059
##########                     HBond_Acceptors:                   6
##########                        HBond_Donors:                   0
##########                         Heavy_Atoms:                  29
##########                          Grid_Score:          -30.271828
##########                     Grid_vdw_energy:          -30.493595
##########                      Grid_es_energy:            0.221767
##########           Internal_energy_repulsive:           14.866189

@<TRIPOS>MOLECULE
oleObject17.pdb
 57 59 1 0 0
SMALL
NO_CHARGES


@<TRIPOS>ATOM
      1 C          -7.7860    0.1335   65.0719 C.3     1  UNL         0.0391
      2 C          -6.6699    1.1420   65.3529 C.ar    1  UNL        -0.0277
      3 C          -5.9293    1.1504   66.5618 C.ar    1  UNL        -0.0463
      4 C          -4.9382    2.1320   66.7597 C.ar    1  UNL        -0.0590
      5 C          -4.6756    3.0954   65.7750 C.ar    1  UNL        -0.0620
      6 C          -5.3946    3.0776   64.5726 C.ar    1  UNL        -0.0619
      7 C          -6.3809    2.1023   64.3634 C.ar    1  UNL        -0.0572
      8 C          -6.1623    0.1228   67.6639 C.3     1  UNL        -0.0394
      9 N          -8.8410    0.6795   64.1914 N.am    1  UNL        -0.3003
     10 C          -8.8463    0.4104   62.8229 C.2     1  UNL         0.2175
     11 O          -8.1828   -0.5133   62.3831 O.2     1  UNL        -0.2772
     12 C         -10.0008    1.0350   61.9955 C.3     1  UNL         0.0384
     13 C         -10.3251    0.2251   60.7147 C.3     1  UNL        -0.0289
     14 C          -9.1918    0.3361   59.6763 C.3     1  UNL        -0.0010
     15 N          -8.9145    1.7433   59.3138 N.4     1  UNL        -0.3010
     16 C          -8.6536    2.6348   60.4683 C.3     1  UNL        -0.0010
     17 C          -9.7231    2.5066   61.5837 C.3     1  UNL        -0.0289
     18 C          -7.9292    1.8832   58.2172 C.3     1  UNL         0.0222
     19 C          -8.5262    1.6365   56.8122 C.3     1  UNL         0.0661
     20 O          -8.0886    0.3461   56.3540 O.3     1  UNL        -0.3432
     21 C          -7.9928    0.0194   55.0148 C.ar    1  UNL         0.0937
     22 C          -7.0395    0.6220   54.1658 C.ar    1  UNL        -0.0288
     23 C          -6.9677    0.2571   52.8114 C.ar    1  UNL        -0.0408
     24 C          -7.8474   -0.7078   52.2961 C.ar    1  UNL         0.0422
     25 C          -8.8009   -1.3088   53.1327 C.ar    1  UNL        -0.0221
     26 C          -8.8744   -0.9463   54.4881 C.ar    1  UNL         0.0723
     27 CL        -10.0732   -1.7204   55.5075 Cl      1  UNL        -0.0814
     28 CL         -7.7552   -1.1612   50.6077 Cl      1  UNL        -0.0843
     29 C          -9.8623    1.5186   64.8445 C.3     1  UNL         0.0031
     30 H          -8.2561   -0.2050   66.0018 H       1  UNL         0.0520
     31 H          -7.3389   -0.7537   64.6062 H       1  UNL         0.0520
     32 H          -4.3663    2.1516   67.6830 H       1  UNL         0.0626
     33 H          -3.9115    3.8495   65.9414 H       1  UNL         0.0623
     34 H          -5.1900    3.8183   63.8050 H       1  UNL         0.0623
     35 H          -6.9350    2.1010   63.4294 H       1  UNL         0.0626
     36 H          -6.0804   -0.9000   67.2760 H       1  UNL         0.0280
     37 H          -7.1550    0.2398   68.1133 H       1  UNL         0.0280
     38 H          -5.4262    0.2203   68.4713 H       1  UNL         0.0280
     39 H         -10.8915    1.0382   62.6349 H       1  UNL         0.0402
     40 H         -11.2522    0.6092   60.2697 H       1  UNL         0.0288
     41 H         -10.5102   -0.8287   60.9479 H       1  UNL         0.0288
     42 H          -9.4734   -0.2322   58.7806 H       1  UNL         0.0431
     43 H          -8.2919   -0.1271   60.0966 H       1  UNL         0.0431
     44 H          -8.6240    3.6778   60.1283 H       1  UNL         0.0431
     45 H          -7.6701    2.4088   60.8952 H       1  UNL         0.0431
     46 H         -10.6576    2.9521   61.2188 H       1  UNL         0.0288
     47 H          -9.4200    3.0942   62.4597 H       1  UNL         0.0288
     48 H          -7.1013    1.1805   58.3765 H       1  UNL         0.0455
     49 H          -7.5043    2.8949   58.2416 H       1  UNL         0.0455
     50 H          -8.1767    2.4081   56.1166 H       1  UNL         0.0586
     51 H          -9.6215    1.6695   56.8583 H       1  UNL         0.0586
     52 H          -6.3518    1.3727   54.5415 H       1  UNL         0.0651
     53 H          -6.2313    0.7235   52.1630 H       1  UNL         0.0639
     54 H          -9.4814   -2.0550   52.7325 H       1  UNL         0.0655
     55 H          -9.4149    2.0889   65.6684 H       1  UNL         0.0433
     56 H         -10.6674    0.8901   65.2439 H       1  UNL         0.0433
     57 H         -10.2828    2.2325   64.1256 H       1  UNL         0.0433
@<TRIPOS>BOND
     1     1     2    1
     2     1     9    1
     3     1    30    1
     4     1    31    1
     5     2     3   ar
     6     2     7   ar
     7     3     4   ar
     8     3     8    1
     9     4     5   ar
    10     4    32    1
    11     5     6   ar
    12     5    33    1
    13     6     7   ar
    14     6    34    1
    15     7    35    1
    16     8    36    1
    17     8    37    1
    18     8    38    1
    19     9    10   am
    20     9    29    1
    21    10    11    2
    22    10    12    1
    23    12    13    1
    24    12    17    1
    25    12    39    1
    26    13    14    1
    27    13    40    1
    28    13    41    1
    29    14    15    1
    30    14    42    1
    31    14    43    1
    32    15    16    1
    33    15    18    1
    34    16    17    1
    35    16    44    1
    36    16    45    1
    37    17    46    1
    38    17    47    1
    39    18    19    1
    40    18    48    1
    41    18    49    1
    42    19    20    1
    43    19    50    1
    44    19    51    1
    45    20    21    1
    46    21    22   ar
    47    21    26   ar
    48    22    23   ar
    49    22    52    1
    50    23    24   ar
    51    23    53    1
    52    24    25   ar
    53    24    28    1
    54    25    26   ar
    55    25    54    1
    56    26    27    1
    57    29    55    1
    58    29    56    1
    59    29    57    1
@<TRIPOS>SUBSTRUCTURE
     1 UNL         1 TEMP              0 ****  ****    0 ROOT


##########                                Name:    ZINC000989658617
##########                DOCK_Rotatable_Bonds:                   6
##########                         Heavy_Atoms:                  24
##########                    Molecular_Weight:             334.418
##########                DOCK_Rotatable_Bonds:                   6
##########                       Formal_Charge:          -0.0100001
##########                     HBond_Acceptors:                   7
##########                        HBond_Donors:                   2
##########                         Heavy_Atoms:                  24
##########                          Grid_Score:          -30.259884
##########                     Grid_vdw_energy:          -30.166954
##########                      Grid_es_energy:           -0.092930
##########           Internal_energy_repulsive:           16.954330

@<TRIPOS>MOLECULE
ZINC000989658617
 50 52 1 0 0
SMALL
USER_CHARGES


@<TRIPOS>ATOM
      1 C1          0.8823   -1.5285   47.5028 C.3     1  ZINC000989658617    0.0300
      2 O2          0.7387   -0.7394   46.3200 O.3     1  ZINC000989658617   -0.3700
      3 C3         -0.2810    0.2580   46.4069 C.3     1  ZINC000989658617    0.0500
      4 C4          0.0818    1.2553   47.4769 C.2     1  ZINC000989658617    0.5300
      5 O5          1.2321    1.6183   47.6026 O.2     1  ZINC000989658617   -0.5100
      6 N6         -0.8722    1.7440   48.2938 N.am    1  ZINC000989658617   -0.6200
      7 C7         -0.6579    2.7203   49.3775 C.3     1  ZINC000989658617    0.1000
      8 C8         -1.8322    2.4861   50.3603 C.3     1  ZINC000989658617   -0.1500
      9 C9         -2.9974    2.1736   49.3845 C.3     1  ZINC000989658617    0.1400
     10 H10        -3.4386    3.0945   49.0033 H       1  ZINC000989658617    0.1100
     11 N11        -4.0139    1.3463   50.0391 N.am    1  ZINC000989658617   -0.7100
     12 C12        -4.6914    1.8257   51.1011 C.2     1  ZINC000989658617    0.6100
     13 O13        -4.4579    2.9439   51.5167 O.2     1  ZINC000989658617   -0.5200
     14 C14        -5.7175    0.9923   51.7600 C.2     1  ZINC000989658617   -0.0100
     15 N15        -6.1430   -0.1957   51.3652 N.2     1  ZINC000989658617   -0.2600
     16 N16        -7.0432   -0.6364   52.1748 N.pl3   1  ZINC000989658617   -0.3700
     17 C17        -7.2548    0.2549   53.1571 C.2     1  ZINC000989658617    0.0100
     18 C18        -6.4272    1.3048   52.9315 C.2     1  ZINC000989658617   -0.1400
     19 C19        -6.3471    2.5312   53.7982 C.3     1  ZINC000989658617   -0.0400
     20 C20        -7.5956    2.5731   54.6898 C.3     1  ZINC000989658617   -0.0900
     21 H21        -8.4697    2.8021   54.0803 H       1  ZINC000989658617    0.0700
     22 C22        -7.4224    3.6535   55.7591 C.3     1  ZINC000989658617   -0.1500
     23 C23        -7.7871    1.2127   55.3658 C.3     1  ZINC000989658617   -0.1100
     24 C24        -8.2058    0.1702   54.3232 C.3     1  ZINC000989658617   -0.0500
     25 C25        -2.3002    1.3968   48.2478 C.3     1  ZINC000989658617    0.1300
     26 H26        -2.4210    0.3247   48.4029 H       1  ZINC000989658617    0.0800
     27 C27        -2.9005    1.7981   46.8989 C.3     1  ZINC000989658617   -0.1600
     28 H28         1.1359   -0.8815   48.3426 H       1  ZINC000989658617    0.0500
     29 H29        -0.0551   -2.0442   47.7115 H       1  ZINC000989658617    0.0400
     30 H30         1.6756   -2.2616   47.3564 H       1  ZINC000989658617    0.0900
     31 H31        -0.3714    0.7696   45.4488 H       1  ZINC000989658617    0.0800
     32 H32        -1.2308   -0.2145   46.6576 H       1  ZINC000989658617    0.0800
     33 H33         0.2947    2.5337   49.8734 H       1  ZINC000989658617    0.0800
     34 H34        -0.6892    3.7364   48.9845 H       1  ZINC000989658617    0.0800
     35 H35        -1.6314    1.6370   51.0137 H       1  ZINC000989658617    0.0800
     36 H36        -2.0399    3.3841   50.9420 H       1  ZINC000989658617    0.1000
     37 H37        -4.1994    0.4536   49.7083 H       1  ZINC000989658617    0.4100
     38 H38        -7.5008   -1.4872   52.0878 H       1  ZINC000989658617    0.4500
     39 H39        -5.4530    2.4840   54.4198 H       1  ZINC000989658617    0.0800
     40 H40        -6.3130    3.4224   53.1716 H       1  ZINC000989658617    0.0800
     41 H41        -7.2866    4.6223   55.2782 H       1  ZINC000989658617    0.0600
     42 H42        -8.3090    3.6834   56.3925 H       1  ZINC000989658617    0.0600
     43 H43        -6.5481    3.4248   56.3686 H       1  ZINC000989658617    0.0600
     44 H44        -6.8504    0.9025   55.8287 H       1  ZINC000989658617    0.0700
     45 H45        -8.5598    1.2930   56.1304 H       1  ZINC000989658617    0.0800
     46 H46        -9.2190    0.3800   53.9805 H       1  ZINC000989658617    0.0800
     47 H47        -8.1654   -0.8262   54.7633 H       1  ZINC000989658617    0.0800
     48 H48        -2.7601    2.8676   46.7424 H       1  ZINC000989658617    0.0600
     49 H49        -2.4035    1.2459   46.1013 H       1  ZINC000989658617    0.0700
     50 H50        -3.9657    1.5666   46.8920 H       1  ZINC000989658617    0.0700
@<TRIPOS>BOND
     1     1     2    1
     2     1    28    1
     3     1    29    1
     4     1    30    1
     5     2     3    1
     6     3     4    1
     7     3    31    1
     8     3    32    1
     9     4     5    2
    10     4     6   am
    11     6    25    1
    12     6     7    1
    13     7     8    1
    14     7    33    1
    15     7    34    1
    16     8     9    1
    17     8    35    1
    18     8    36    1
    19     9    10    1
    20     9    11    1
    21     9    25    1
    22    11    12   am
    23    11    37    1
    24    12    13    2
    25    12    14    1
    26    14    18    1
    27    14    15    2
    28    15    16    1
    29    16    17    1
    30    16    38    1
    31    17    24    1
    32    17    18    2
    33    18    19    1
    34    19    20    1
    35    19    39    1
    36    19    40    1
    37    20    21    1
    38    20    22    1
    39    20    23    1
    40    22    41    1
    41    22    42    1
    42    22    43    1
    43    23    24    1
    44    23    44    1
    45    23    45    1
    46    24    46    1
    47    24    47    1
    48    25    26    1
    49    25    27    1
    50    27    48    1
    51    27    49    1
    52    27    50    1
@<TRIPOS>SUBSTRUCTURE
     1 ZINC000989658617        1 TEMP              0 ****  ****    0 ROOT


##########                                Name:    ZINC001296589646
##########                DOCK_Rotatable_Bonds:                   8
##########                         Heavy_Atoms:                  29
##########                    Molecular_Weight:             398.548
##########                DOCK_Rotatable_Bonds:                   8
##########                       Formal_Charge:          -0.0200008
##########                     HBond_Acceptors:                   6
##########                        HBond_Donors:                   0
##########                         Heavy_Atoms:                  29
##########                          Grid_Score:          -30.242266
##########                     Grid_vdw_energy:          -29.606880
##########                      Grid_es_energy:           -0.635386
##########           Internal_energy_repulsive:           19.605726

@<TRIPOS>MOLECULE
ZINC001296589646
 63 66 1 0 0
SMALL
USER_CHARGES


@<TRIPOS>ATOM
      1 C1        -11.0500    2.3509   52.1374 C.3     1  ZINC001296589646   -0.1500
      2 C2        -10.3151    1.0171   51.9903 C.3     1  ZINC001296589646    0.0500
      3 O3         -8.9255    1.2060   52.2651 O.3     1  ZINC001296589646   -0.3600
      4 C4         -8.2648    0.0358   52.7509 C.3     1  ZINC001296589646    0.1800
      5 C5         -8.6911   -0.2705   54.1636 C.2     1  ZINC001296589646    0.1500
      6 N6         -9.1382   -1.4120   54.6049 N.2     1  ZINC001296589646   -0.2600
      7 N7         -9.4086   -1.3244   55.8584 N.2     1  ZINC001296589646   -0.3200
      8 C8         -9.1463   -0.1124   56.2874 C.2     1  ZINC001296589646    0.3600
      9 N9         -9.3115    0.3575   57.5807 N.3     1  ZINC001296589646   -0.4300
     10 C10       -10.7511    0.5176   57.9091 C.3     1  ZINC001296589646    0.0300
     11 C11       -10.7633    0.5193   59.4584 C.3     1  ZINC001296589646   -0.1200
     12 C12        -9.6777   -0.5224   59.8138 C.3     1  ZINC001296589646   -0.1000
     13 H13       -10.1347   -1.4909   60.0167 H       1  ZINC001296589646    0.0800
     14 C14        -8.8684   -0.0540   61.0248 C.3     1  ZINC001296589646   -0.1400
     15 C15        -8.7777   -0.6067   58.5671 C.3     1  ZINC001296589646    0.0500
     16 N16        -8.6748    0.5963   55.2209 N.pl3   1  ZINC001296589646   -0.4600
     17 C17        -8.2488    1.9980   55.2090 C.3     1  ZINC001296589646    0.1000
     18 C18        -6.7888    2.0911   55.6568 C.3     1  ZINC001296589646   -0.1300
     19 C19        -6.2244    3.4607   55.2738 C.3     1  ZINC001296589646   -0.0500
     20 H20        -6.6696    3.7873   54.3342 H       1  ZINC001296589646    0.0800
     21 C21        -6.5526    4.4731   56.3730 C.3     1  ZINC001296589646   -0.1500
     22 C22        -4.7293    3.3606   55.1132 C.ar    1  ZINC001296589646   -0.0800
     23 C23        -4.1352    3.7375   53.9231 C.ar    1  ZINC001296589646   -0.1100
     24 C24        -2.7638    3.6457   53.7758 C.ar    1  ZINC001296589646   -0.1200
     25 C25        -1.9864    3.1773   54.8185 C.ar    1  ZINC001296589646   -0.1200
     26 C26        -2.5803    2.8013   56.0087 C.ar    1  ZINC001296589646   -0.1200
     27 C27        -3.9513    2.8972   56.1576 C.ar    1  ZINC001296589646   -0.1200
     28 C28        -6.7226    0.1921   52.6559 C.3     1  ZINC001296589646   -0.1400
     29 C29        -6.4745   -0.2266   51.1848 C.3     1  ZINC001296589646    0.0600
     30 O30        -7.4141   -1.2834   50.9322 O.3     1  ZINC001296589646   -0.3700
     31 C31        -8.5296   -1.1697   51.8235 C.3     1  ZINC001296589646    0.0400
     32 H32       -11.0028    2.6792   53.1757 H       1  ZINC001296589646    0.0600
     33 H33       -10.5788    3.0977   51.4984 H       1  ZINC001296589646    0.0700
     34 H34       -12.0920    2.2261   51.8428 H       1  ZINC001296589646    0.0700
     35 H35       -10.7295    0.2944   52.6933 H       1  ZINC001296589646    0.0500
     36 H36       -10.4370    0.6452   50.9730 H       1  ZINC001296589646    0.0600
     37 H37       -11.1317    1.4621   57.5202 H       1  ZINC001296589646    0.0900
     38 H38       -11.3298   -0.3206   57.5208 H       1  ZINC001296589646    0.0600
     39 H39       -10.4957    1.5026   59.8451 H       1  ZINC001296589646    0.0800
     40 H40       -11.7365    0.2066   59.8369 H       1  ZINC001296589646    0.0800
     41 H41        -9.5291    0.0478   61.8859 H       1  ZINC001296589646    0.0600
     42 H42        -8.0914   -0.7852   61.2474 H       1  ZINC001296589646    0.0600
     43 H43        -8.4085    0.9093   60.8040 H       1  ZINC001296589646    0.0600
     44 H44        -8.8081   -1.6152   58.1546 H       1  ZINC001296589646    0.0800
     45 H45        -7.7537   -0.3407   58.8296 H       1  ZINC001296589646    0.0900
     46 H46        -8.3457    2.3986   54.2000 H       1  ZINC001296589646    0.1100
     47 H47        -8.8753    2.5739   55.8903 H       1  ZINC001296589646    0.1000
     48 H48        -6.7315    1.9639   56.7379 H       1  ZINC001296589646    0.0800
     49 H49        -6.2082    1.3090   55.1676 H       1  ZINC001296589646    0.0700
     50 H50        -6.1503    5.4487   56.1002 H       1  ZINC001296589646    0.0600
     51 H51        -7.6339    4.5454   56.4891 H       1  ZINC001296589646    0.0600
     52 H52        -6.1072    4.1464   57.3127 H       1  ZINC001296589646    0.0600
     53 H53        -4.7426    4.1034   53.1085 H       1  ZINC001296589646    0.1200
     54 H54        -2.2998    3.9395   52.8458 H       1  ZINC001296589646    0.1200
     55 H55        -0.9151    3.1050   54.7030 H       1  ZINC001296589646    0.1200
     56 H56        -1.9730    2.4351   56.8231 H       1  ZINC001296589646    0.1200
     57 H57        -4.4153    2.6033   57.0875 H       1  ZINC001296589646    0.1200
     58 H58        -6.4213    1.2258   52.8262 H       1  ZINC001296589646    0.1000
     59 H59        -6.2160   -0.4816   53.3469 H       1  ZINC001296589646    0.1000
     60 H60        -6.6611    0.6135   50.5157 H       1  ZINC001296589646    0.0700
     61 H61        -5.4543   -0.5899   51.0618 H       1  ZINC001296589646    0.0900
     62 H62        -8.6230   -2.0793   52.4168 H       1  ZINC001296589646    0.1000
     63 H63        -9.4433   -1.0036   51.2529 H       1  ZINC001296589646    0.0800
@<TRIPOS>BOND
     1     1     2    1
     2     1    32    1
     3     1    33    1
     4     1    34    1
     5     2     3    1
     6     2    35    1
     7     2    36    1
     8     3     4    1
     9     4    31    1
    10     4     5    1
    11     4    28    1
    12     5    16    1
    13     5     6    2
    14     6     7    1
    15     7     8    2
    16     8     9    1
    17     8    16    1
    18     9    15    1
    19     9    10    1
    20    10    11    1
    21    10    37    1
    22    10    38    1
    23    11    12    1
    24    11    39    1
    25    11    40    1
    26    12    13    1
    27    12    14    1
    28    12    15    1
    29    14    41    1
    30    14    42    1
    31    14    43    1
    32    15    44    1
    33    15    45    1
    34    16    17    1
    35    17    18    1
    36    17    46    1
    37    17    47    1
    38    18    19    1
    39    18    48    1
    40    18    49    1
    41    19    20    1
    42    19    21    1
    43    19    22    1
    44    21    50    1
    45    21    51    1
    46    21    52    1
    47    22    27   ar
    48    22    23   ar
    49    23    24   ar
    50    23    53    1
    51    24    25   ar
    52    24    54    1
    53    25    26   ar
    54    25    55    1
    55    26    27   ar
    56    26    56    1
    57    27    57    1
    58    28    29    1
    59    28    58    1
    60    28    59    1
    61    29    30    1
    62    29    60    1
    63    29    61    1
    64    30    31    1
    65    31    62    1
    66    31    63    1
@<TRIPOS>SUBSTRUCTURE
     1 ZINC001296589646        1 TEMP              0 ****  ****    0 ROOT


##########                                Name:    ZINC000573150059
##########                DOCK_Rotatable_Bonds:                   7
##########                         Heavy_Atoms:                  23
##########                    Molecular_Weight:             378.269
##########                DOCK_Rotatable_Bonds:                   7
##########                       Formal_Charge:        -2.98023e-07
##########                     HBond_Acceptors:                   5
##########                        HBond_Donors:                   2
##########                         Heavy_Atoms:                  23
##########                          Grid_Score:          -30.169277
##########                     Grid_vdw_energy:          -28.882666
##########                      Grid_es_energy:           -1.286612
##########           Internal_energy_repulsive:            6.555478

@<TRIPOS>MOLECULE
ZINC000573150059
 43 44 1 0 0
SMALL
USER_CHARGES


@<TRIPOS>ATOM
      1 C1         -6.0838   -0.8982   51.2852 C.3     1  ZINC000573150059    0.0300
      2 O2         -6.6891   -0.6759   52.5604 O.3     1  ZINC000573150059   -0.3600
      3 C3         -7.8432    0.1657   52.5172 C.3     1  ZINC000573150059    0.0700
      4 H4         -7.6556    1.0054   51.8481 H       1  ZINC000573150059    0.0900
      5 C5         -9.0409   -0.6368   52.0051 C.3     1  ZINC000573150059   -0.1700
      6 C6         -8.1398    0.6829   53.9013 C.2     1  ZINC000573150059    0.5100
      7 O7         -9.2594    1.0551   54.1826 O.2     1  ZINC000573150059   -0.4900
      8 N8         -7.1610    0.7319   54.8264 N.am    1  ZINC000573150059   -0.6700
      9 C9         -7.4364    1.2121   56.1115 C.ar    1  ZINC000573150059    0.1900
     10 C10        -6.8691    2.4038   56.5448 C.ar    1  ZINC000573150059   -0.2000
     11 C11        -7.1404    2.8790   57.8136 C.ar    1  ZINC000573150059   -0.0500
     12 C12        -7.9766    2.1715   58.6552 C.ar    1  ZINC000573150059   -0.2200
     13 C13        -8.5478    0.9787   58.2277 C.ar    1  ZINC000573150059    0.2400
     14 N14        -9.3936    0.2640   59.0789 N.pl3   1  ZINC000573150059   -0.7300
     15 C15        -9.1419   -1.1556   59.3390 C.3     1  ZINC000573150059    0.2000
     16 H16        -8.1869   -1.4419   58.8984 H       1  ZINC000573150059    0.1000
     17 C17        -9.0999   -1.3977   60.8492 C.3     1  ZINC000573150059   -0.1700
     18 C18       -10.2447   -1.9814   58.7284 C.ar    1  ZINC000573150059    0.1400
     19 C19       -10.0914   -3.3504   58.6184 C.ar    1  ZINC000573150059   -0.1600
     20 C20       -11.1119   -4.1017   58.0556 C.ar    1  ZINC000573150059   -0.0400
     21 C21       -12.2539   -3.4441   57.6223 C.ar    1  ZINC000573150059   -0.1500
     22 Br22      -13.6808   -4.4127   56.8468 Br      1  ZINC000573150059   -0.0300
     23 C23       -12.3355   -2.0707   57.7655 C.ar    1  ZINC000573150059    0.1400
     24 N24       -11.3467   -1.3898   58.3103 N.ar    1  ZINC000573150059   -0.4700
     25 C25        -8.2810    0.5014   56.9523 C.ar    1  ZINC000573150059   -0.1900
     26 H26        -6.8039   -1.3735   50.6191 H       1  ZINC000573150059    0.0500
     27 H27        -5.7706    0.0556   50.8605 H       1  ZINC000573150059    0.0400
     28 H28        -5.2153   -1.5461   51.4031 H       1  ZINC000573150059    0.0900
     29 H29        -9.2284   -1.4766   52.6743 H       1  ZINC000573150059    0.0700
     30 H30        -9.9211    0.0052   51.9722 H       1  ZINC000573150059    0.0700
     31 H31        -8.8264   -1.0108   51.0041 H       1  ZINC000573150059    0.0700
     32 H32        -6.2656    0.4342   54.6015 H       1  ZINC000573150059    0.4100
     33 H33        -6.2149    2.9594   55.8892 H       1  ZINC000573150059    0.1200
     34 H34        -6.6975    3.8055   58.1482 H       1  ZINC000573150059    0.1300
     35 H35        -8.1865    2.5453   59.6464 H       1  ZINC000573150059    0.1200
     36 H36       -10.1477    0.7076   59.4979 H       1  ZINC000573150059    0.4100
     37 H37       -10.0548   -1.1114   61.2898 H       1  ZINC000573150059    0.0600
     38 H38        -8.9126   -2.4539   61.0427 H       1  ZINC000573150059    0.0700
     39 H39        -8.3022   -0.8003   61.2909 H       1  ZINC000573150059    0.0700
     40 H40        -9.1880   -3.8291   58.9662 H       1  ZINC000573150059    0.1500
     41 H41       -11.0197   -5.1731   57.9565 H       1  ZINC000573150059    0.1500
     42 H42       -13.2209   -1.5508   57.4306 H       1  ZINC000573150059    0.1700
     43 H43        -8.7238   -0.4249   56.6175 H       1  ZINC000573150059    0.1400
@<TRIPOS>BOND
     1     1     2    1
     2     1    26    1
     3     1    27    1
     4     1    28    1
     5     2     3    1
     6     3     4    1
     7     3     5    1
     8     3     6    1
     9     5    29    1
    10     5    30    1
    11     5    31    1
    12     6     7    2
    13     6     8   am
    14     8     9    1
    15     8    32    1
    16     9    25   ar
    17     9    10   ar
    18    10    11   ar
    19    10    33    1
    20    11    12   ar
    21    11    34    1
    22    12    13   ar
    23    12    35    1
    24    13    14    1
    25    13    25   ar
    26    14    15    1
    27    14    36    1
    28    15    16    1
    29    15    17    1
    30    15    18    1
    31    17    37    1
    32    17    38    1
    33    17    39    1
    34    18    24   ar
    35    18    19   ar
    36    19    20   ar
    37    19    40    1
    38    20    21   ar
    39    20    41    1
    40    21    22    1
    41    21    23   ar
    42    23    24   ar
    43    23    42    1
    44    25    43    1
@<TRIPOS>SUBSTRUCTURE
     1 ZINC000573150059        1 TEMP              0 ****  ****    0 ROOT


##########                                Name:    ZINC001018437438
##########                DOCK_Rotatable_Bonds:                   8
##########                         Heavy_Atoms:                  24
##########                    Molecular_Weight:              333.39
##########                DOCK_Rotatable_Bonds:                   8
##########                       Formal_Charge:        -4.17233e-07
##########                     HBond_Acceptors:                   8
##########                        HBond_Donors:                   4
##########                         Heavy_Atoms:                  24
##########                          Grid_Score:          -30.168552
##########                     Grid_vdw_energy:          -30.825502
##########                      Grid_es_energy:            0.656949
##########           Internal_energy_repulsive:           91.574242

@<TRIPOS>MOLECULE
ZINC001018437438
 47 49 1 0 0
SMALL
USER_CHARGES


@<TRIPOS>ATOM
      1 C1         -1.9525    1.2959   44.6285 C.3     1  ZINC001018437438   -0.1400
      2 C2         -1.5210    1.8129   46.0022 C.3     1  ZINC001018437438    0.1400
      3 H3         -0.6449    2.4523   45.8934 H       1  ZINC001018437438    0.0700
      4 C4         -2.6653    2.6127   46.6327 C.3     1  ZINC001018437438   -0.1300
      5 C5         -2.2801    3.0083   48.0601 C.3     1  ZINC001018437438   -0.1300
      6 C6         -2.0536    1.7472   48.8972 C.3     1  ZINC001018437438    0.1300
      7 H7         -2.9612    1.1437   48.8987 H       1  ZINC001018437438    0.1000
      8 N8         -1.7163    2.1266   50.2714 N.am    1  ZINC001018437438   -0.7200
      9 C9         -2.6935    2.2847   51.1860 C.2     1  ZINC001018437438    0.6000
     10 O10        -3.8554    2.1108   50.8708 O.2     1  ZINC001018437438   -0.5100
     11 C11        -2.3549    2.6675   52.5660 C.2     1  ZINC001018437438   -0.0400
     12 C12        -1.0897    2.8991   53.0771 C.2     1  ZINC001018437438   -0.1400
     13 C13        -1.2879    3.2299   54.4196 C.2     1  ZINC001018437438    0.0600
     14 C14        -0.2116    3.5729   55.4170 C.3     1  ZINC001018437438   -0.0800
     15 C15        -0.5094    4.6870   56.4226 C.3     1  ZINC001018437438   -0.1700
     16 C16        -0.4732    3.2289   56.8848 C.3     1  ZINC001018437438   -0.1600
     17 N17        -2.5741    3.1898   54.6572 N.2     1  ZINC001018437438   -0.2600
     18 N18        -3.2267    2.8711   53.5976 N.pl3   1  ZINC001018437438   -0.3800
     19 C19        -0.9023    0.9377   48.2924 C.3     1  ZINC001018437438    0.1000
     20 N20        -1.1963    0.6773   46.8761 N.am    1  ZINC001018437438   -0.6100
     21 C21        -1.1735   -0.5794   46.3898 C.2     1  ZINC001018437438    0.5200
     22 O22        -1.4225   -0.7816   45.2202 O.2     1  ZINC001018437438   -0.4800
     23 C23        -0.8385   -1.7333   47.2994 C.3     1  ZINC001018437438   -0.1700
     24 C24         0.6096   -1.6472   47.7077 C.2     1  ZINC001018437438    0.5200
     25 N25         1.5120   -1.0896   46.8763 N.am    1  ZINC001018437438   -0.8600
     26 O26         0.9629   -2.0795   48.7843 O.2     1  ZINC001018437438   -0.5000
     27 H27        -2.7646    0.5788   44.7487 H       1  ZINC001018437438    0.0700
     28 H28        -2.2931    2.1311   44.0165 H       1  ZINC001018437438    0.0500
     29 H29        -1.1074    0.8096   44.1413 H       1  ZINC001018437438    0.0800
     30 H30        -2.8492    3.5110   46.0433 H       1  ZINC001018437438    0.0900
     31 H31        -3.5672    2.0011   46.6556 H       1  ZINC001018437438    0.0700
     32 H32        -1.3644    3.5992   48.0385 H       1  ZINC001018437438    0.0700
     33 H33        -3.0825    3.5986   48.5024 H       1  ZINC001018437438    0.0800
     34 H34        -0.7897    2.2641   50.5231 H       1  ZINC001018437438    0.4000
     35 H35        -0.1491    2.8373   52.5500 H       1  ZINC001018437438    0.1700
     36 H36         0.8121    3.4827   55.0538 H       1  ZINC001018437438    0.1200
     37 H37         0.3185    5.3302   56.7209 H       1  ZINC001018437438    0.1000
     38 H38        -1.4838    5.1719   56.3625 H       1  ZINC001018437438    0.1000
     39 H39        -1.4237    2.7546   57.1289 H       1  ZINC001018437438    0.1000
     40 H40         0.3785    2.9129   57.4871 H       1  ZINC001018437438    0.1000
     41 H41        -4.1909    2.7820   53.5407 H       1  ZINC001018437438    0.4400
     42 H42         0.0249    1.5050   48.3726 H       1  ZINC001018437438    0.0700
     43 H43        -0.8016   -0.0082   48.8246 H       1  ZINC001018437438    0.0900
     44 H44        -1.4694   -1.6911   48.1873 H       1  ZINC001018437438    0.1200
     45 H45        -1.0128   -2.6724   46.7743 H       1  ZINC001018437438    0.1200
     46 H46         2.4443   -1.0350   47.1383 H       1  ZINC001018437438    0.4000
     47 H47         1.2291   -0.7427   46.0157 H       1  ZINC001018437438    0.4000
@<TRIPOS>BOND
     1     1     2    1
     2     1    27    1
     3     1    28    1
     4     1    29    1
     5     2     3    1
     6     2    20    1
     7     2     4    1
     8     4     5    1
     9     4    30    1
    10     4    31    1
    11     5     6    1
    12     5    32    1
    13     5    33    1
    14     6     7    1
    15     6     8    1
    16     6    19    1
    17     8     9   am
    18     8    34    1
    19     9    10    2
    20     9    11    1
    21    11    18    1
    22    11    12    2
    23    12    13    1
    24    12    35    1
    25    13    14    1
    26    13    17    2
    27    14    16    1
    28    14    15    1
    29    14    36    1
    30    15    16    1
    31    15    37    1
    32    15    38    1
    33    16    39    1
    34    16    40    1
    35    17    18    1
    36    18    41    1
    37    19    20    1
    38    19    42    1
    39    19    43    1
    40    20    21   am
    41    21    22    2
    42    21    23    1
    43    23    24    1
    44    23    44    1
    45    23    45    1
    46    24    25   am
    47    24    26    2
    48    25    46    1
    49    25    47    1
@<TRIPOS>SUBSTRUCTURE
     1 ZINC001018437438        1 TEMP              0 ****  ****    0 ROOT


##########                                Name:    ZINC000425987417
##########                DOCK_Rotatable_Bonds:                   9
##########                         Heavy_Atoms:                  25
##########                    Molecular_Weight:             357.419
##########                DOCK_Rotatable_Bonds:                   9
##########                       Formal_Charge:         -0.00999992
##########                     HBond_Acceptors:                   7
##########                        HBond_Donors:                   1
##########                         Heavy_Atoms:                  25
##########                          Grid_Score:          -30.150101
##########                     Grid_vdw_energy:          -30.954704
##########                      Grid_es_energy:            0.804603
##########           Internal_energy_repulsive:           16.797640

@<TRIPOS>MOLECULE
ZINC000425987417
 51 52 1 0 0
SMALL
USER_CHARGES


@<TRIPOS>ATOM
      1 C1         -9.3126    2.8170   53.3951 C.3     1  ZINC000425987417   -0.1500
      2 C2         -9.9047    1.7910   52.4266 C.3     1  ZINC000425987417    0.0400
      3 N3         -9.2345    0.4974   52.6139 N.3     1  ZINC000425987417   -0.5300
      4 C4        -10.0279   -0.3863   53.4785 C.3     1  ZINC000425987417    0.0400
      5 C5         -9.2637   -0.6491   54.7777 C.3     1  ZINC000425987417    0.1400
      6 N6        -10.0087   -1.6083   55.5970 N.am    1  ZINC000425987417   -0.7500
      7 C7        -10.2290   -1.3521   56.9017 C.2     1  ZINC000425987417    0.7200
      8 O8         -9.8096   -0.3248   57.3987 O.2     1  ZINC000425987417   -0.5800
      9 N9        -10.9143   -2.2346   57.6553 N.am    1  ZINC000425987417   -0.6200
     10 C10       -11.4355   -3.4873   57.0837 C.3     1  ZINC000425987417    0.1300
     11 C11       -12.9608   -3.4380   57.1568 C.3     1  ZINC000425987417   -0.1000
     12 C12       -13.4182   -3.0023   58.5239 C.ar    1  ZINC000425987417   -0.0600
     13 C13       -14.7220   -3.3070   58.8946 C.ar    1  ZINC000425987417   -0.1200
     14 C14       -15.2074   -2.9283   60.1291 C.ar    1  ZINC000425987417   -0.1100
     15 C15       -14.3919   -2.2382   61.0063 C.ar    1  ZINC000425987417   -0.1200
     16 C16       -13.0954   -1.9371   60.6420 C.ar    1  ZINC000425987417   -0.1100
     17 C17       -12.6041   -2.3226   59.4025 C.ar    1  ZINC000425987417   -0.0900
     18 C18       -11.1656   -1.9882   59.0793 C.3     1  ZINC000425987417    0.1800
     19 H19       -10.9779   -0.9383   59.3045 H       1  ZINC000425987417    0.0900
     20 C20       -10.2374   -2.8638   59.9236 C.3     1  ZINC000425987417   -0.1600
     21 C21        -8.9551   -0.1428   51.3215 C.3     1  ZINC000425987417    0.0500
     22 C22        -7.7692   -1.0978   51.4712 C.3     1  ZINC000425987417   -0.1600
     23 C23        -6.4858   -0.2897   51.6725 C.3     1  ZINC000425987417    0.4500
     24 F24        -5.3975   -1.1622   51.7813 F       1  ZINC000425987417   -0.1800
     25 F25        -6.2938    0.5611   50.5788 F       1  ZINC000425987417   -0.1800
     26 F26        -6.5922    0.4708   52.8419 F       1  ZINC000425987417   -0.1900
     27 H27        -8.2562    2.9623   53.1693 H       1  ZINC000425987417    0.0500
     28 H28        -9.8407    3.7646   53.2881 H       1  ZINC000425987417    0.0600
     29 H29        -9.4192    2.4551   54.4177 H       1  ZINC000425987417    0.0700
     30 H30       -10.9710    1.6795   52.6227 H       1  ZINC000425987417    0.0800
     31 H31        -9.7572    2.1316   51.4017 H       1  ZINC000425987417    0.0400
     32 H32       -10.9812    0.0900   53.7076 H       1  ZINC000425987417    0.0500
     33 H33       -10.2078   -1.3309   52.9653 H       1  ZINC000425987417    0.0800
     34 H34        -8.2803   -1.0570   54.5445 H       1  ZINC000425987417    0.0800
     35 H35        -9.1487    0.2855   55.3269 H       1  ZINC000425987417    0.0700
     36 H36       -10.3433   -2.4278   55.2004 H       1  ZINC000425987417    0.3900
     37 H37       -11.1188   -3.5782   56.0446 H       1  ZINC000425987417    0.1000
     38 H38       -11.0659   -4.3366   57.6582 H       1  ZINC000425987417    0.0700
     39 H39       -13.3329   -2.7337   56.4128 H       1  ZINC000425987417    0.0800
     40 H40       -13.3621   -4.4289   56.9435 H       1  ZINC000425987417    0.0900
     41 H41       -15.3613   -3.8447   58.2101 H       1  ZINC000425987417    0.1200
     42 H42       -16.2220   -3.1701   60.4094 H       1  ZINC000425987417    0.1200
     43 H43       -14.7680   -1.9356   61.9724 H       1  ZINC000425987417    0.1200
     44 H44       -12.4581   -1.3973   61.3267 H       1  ZINC000425987417    0.1200
     45 H45       -10.4257   -3.9138   59.7001 H       1  ZINC000425987417    0.0700
     46 H46        -9.2000   -2.6231   59.6911 H       1  ZINC000425987417    0.0600
     47 H47       -10.4252   -2.6781   60.9811 H       1  ZINC000425987417    0.0700
     48 H48        -9.8325   -0.7014   50.9955 H       1  ZINC000425987417    0.0500
     49 H49        -8.7153    0.6212   50.5820 H       1  ZINC000425987417    0.0900
     50 H50        -7.9303   -1.7448   52.3336 H       1  ZINC000425987417    0.1200
     51 H51        -7.6777   -1.7071   50.5720 H       1  ZINC000425987417    0.1100
@<TRIPOS>BOND
     1     1     2    1
     2     1    27    1
     3     1    28    1
     4     1    29    1
     5     2     3    1
     6     2    30    1
     7     2    31    1
     8     3     4    1
     9     3    21    1
    10     4     5    1
    11     4    32    1
    12     4    33    1
    13     5     6    1
    14     5    34    1
    15     5    35    1
    16     6     7   am
    17     6    36    1
    18     7     8    2
    19     7     9   am
    20     9    18    1
    21     9    10    1
    22    10    11    1
    23    10    37    1
    24    10    38    1
    25    11    12    1
    26    11    39    1
    27    11    40    1
    28    12    17   ar
    29    12    13   ar
    30    13    14   ar
    31    13    41    1
    32    14    15   ar
    33    14    42    1
    34    15    16   ar
    35    15    43    1
    36    16    17   ar
    37    16    44    1
    38    17    18    1
    39    18    19    1
    40    18    20    1
    41    20    45    1
    42    20    46    1
    43    20    47    1
    44    21    22    1
    45    21    48    1
    46    21    49    1
    47    22    23    1
    48    22    50    1
    49    22    51    1
    50    23    24    1
    51    23    25    1
    52    23    26    1
@<TRIPOS>SUBSTRUCTURE
     1 ZINC000425987417        1 TEMP              0 ****  ****    0 ROOT


##########                                Name:    ZINC000451500596
##########                DOCK_Rotatable_Bonds:                   7
##########                         Heavy_Atoms:                  25
##########                    Molecular_Weight:             365.497
##########                DOCK_Rotatable_Bonds:                   7
##########                       Formal_Charge:           0.0400004
##########                     HBond_Acceptors:                   7
##########                        HBond_Donors:                   2
##########                         Heavy_Atoms:                  25
##########                          Grid_Score:          -30.147572
##########                     Grid_vdw_energy:          -30.852091
##########                      Grid_es_energy:            0.704519
##########           Internal_energy_repulsive:           10.033709

@<TRIPOS>MOLECULE
ZINC000451500596
 52 54 1 0 0
SMALL
USER_CHARGES


@<TRIPOS>ATOM
      1 C1         -8.6788   -0.5829   62.1650 C.3     1  ZINC000451500596   -0.6700
      2 S2         -8.5654   -1.3518   60.5259 S.o2    1  ZINC000451500596    2.6100
      3 O3         -8.4790   -0.3580   59.5139 O.2     1  ZINC000451500596   -0.9500
      4 O4         -7.6652   -2.4510   60.5521 O.2     1  ZINC000451500596   -0.9600
      5 N5        -10.0505   -2.0457   60.2913 N.am    1  ZINC000451500596   -1.1200
      6 C6        -10.3322   -2.7710   59.0500 C.3     1  ZINC000451500596    0.1200
      7 C7        -11.0760   -1.8512   58.0795 C.3     1  ZINC000451500596   -0.1000
      8 H8        -10.5492   -0.9014   57.9877 H       1  ZINC000451500596    0.0900
      9 C9        -12.5160   -1.6108   58.5779 C.3     1  ZINC000451500596   -0.1200
     10 C10       -13.3652   -1.5757   57.2830 C.3     1  ZINC000451500596   -0.1300
     11 C11       -12.7025   -2.6701   56.4099 C.3     1  ZINC000451500596   -0.1300
     12 C12       -11.1934   -2.5243   56.7007 C.3     1  ZINC000451500596    0.1400
     13 H13       -10.7209   -3.5062   56.7232 H       1  ZINC000451500596    0.1000
     14 N14       -10.5635   -1.6878   55.6761 N.am    1  ZINC000451500596   -0.7200
     15 C15       -10.0316   -2.2560   54.5758 C.2     1  ZINC000451500596    0.5300
     16 O16       -10.0732   -3.4600   54.4346 O.2     1  ZINC000451500596   -0.5300
     17 C17        -9.3852   -1.3956   53.5210 C.3     1  ZINC000451500596   -0.1300
     18 H18        -8.7846   -2.0037   52.8444 H       1  ZINC000451500596    0.1000
     19 C19       -10.4561   -0.5949   52.7343 C.3     1  ZINC000451500596   -0.1200
     20 C20        -9.6398    0.6306   52.2533 C.3     1  ZINC000451500596    0.0500
     21 N21        -8.7249    0.9380   53.3732 N.3     1  ZINC000451500596   -0.4900
     22 C22        -7.5048    1.4290   52.9027 C.ar    1  ZINC000451500596    0.0800
     23 C23        -7.1026    2.7189   53.2250 C.ar    1  ZINC000451500596   -0.0900
     24 C24        -5.8955    3.2010   52.7585 C.ar    1  ZINC000451500596   -0.1100
     25 C25        -5.0877    2.4015   51.9707 C.ar    1  ZINC000451500596   -0.1200
     26 C26        -5.4852    1.1169   51.6478 C.ar    1  ZINC000451500596   -0.1100
     27 C27        -6.6884    0.6264   52.1158 C.ar    1  ZINC000451500596   -0.1500
     28 C28        -8.5256   -0.2903   54.1696 C.3     1  ZINC000451500596    0.0600
     29 H29        -9.4785    0.1579   62.1642 H       1  ZINC000451500596    0.1300
     30 H30        -8.8929   -1.3480   62.9112 H       1  ZINC000451500596    0.1300
     31 H31        -7.7332   -0.0964   62.4044 H       1  ZINC000451500596    0.1300
     32 H32       -10.7339   -1.9719   60.9757 H       1  ZINC000451500596    0.4200
     33 H33        -9.3950   -3.0948   58.5976 H       1  ZINC000451500596    0.0700
     34 H34       -10.9494   -3.6421   59.2703 H       1  ZINC000451500596    0.0900
     35 H35       -12.8379   -2.4282   59.2231 H       1  ZINC000451500596    0.0800
     36 H36       -12.5836   -0.6588   59.1042 H       1  ZINC000451500596    0.0700
     37 H37       -14.4041   -1.8277   57.4954 H       1  ZINC000451500596    0.0700
     38 H38       -13.2938   -0.6009   56.8006 H       1  ZINC000451500596    0.0700
     39 H39       -13.0545   -3.6586   56.7050 H       1  ZINC000451500596    0.0800
     40 H40       -12.9062   -2.4911   55.3542 H       1  ZINC000451500596    0.0700
     41 H41       -10.5292   -0.7251   55.7896 H       1  ZINC000451500596    0.4000
     42 H42       -10.8309   -1.1708   51.8881 H       1  ZINC000451500596    0.0800
     43 H43       -11.2725   -0.2880   53.3881 H       1  ZINC000451500596    0.0800
     44 H44        -9.0720    0.3803   51.3571 H       1  ZINC000451500596    0.0600
     45 H45       -10.3012    1.4753   52.0608 H       1  ZINC000451500596    0.0900
     46 H46        -7.7333    3.3441   53.8398 H       1  ZINC000451500596    0.1300
     47 H47        -5.5822    4.2038   53.0088 H       1  ZINC000451500596    0.1300
     48 H48        -4.1447    2.7812   51.6066 H       1  ZINC000451500596    0.1200
     49 H49        -4.8520    0.4951   51.0324 H       1  ZINC000451500596    0.1200
     50 H50        -6.9981   -0.3769   51.8635 H       1  ZINC000451500596    0.1200
     51 H51        -8.8526   -0.1238   55.1960 H       1  ZINC000451500596    0.1000
     52 H52        -7.4736   -0.5752   54.1548 H       1  ZINC000451500596    0.0700
@<TRIPOS>BOND
     1     1     2    1
     2     1    29    1
     3     1    30    1
     4     1    31    1
     5     2     3    2
     6     2     4    2
     7     2     5   am
     8     5     6    1
     9     5    32    1
    10     6     7    1
    11     6    33    1
    12     6    34    1
    13     7     8    1
    14     7    12    1
    15     7     9    1
    16     9    10    1
    17     9    35    1
    18     9    36    1
    19    10    11    1
    20    10    37    1
    21    10    38    1
    22    11    12    1
    23    11    39    1
    24    11    40    1
    25    12    13    1
    26    12    14    1
    27    14    15   am
    28    14    41    1
    29    15    16    2
    30    15    17    1
    31    17    18    1
    32    17    28    1
    33    17    19    1
    34    19    20    1
    35    19    42    1
    36    19    43    1
    37    20    21    1
    38    20    44    1
    39    20    45    1
    40    21    22    1
    41    21    28    1
    42    22    27   ar
    43    22    23   ar
    44    23    24   ar
    45    23    46    1
    46    24    25   ar
    47    24    47    1
    48    25    26   ar
    49    25    48    1
    50    26    27   ar
    51    26    49    1
    52    27    50    1
    53    28    51    1
    54    28    52    1
@<TRIPOS>SUBSTRUCTURE
     1 ZINC000451500596        1 TEMP              0 ****  ****    0 ROOT


##########                                Name:    ZINC001053433946
##########                DOCK_Rotatable_Bonds:                   6
##########                         Heavy_Atoms:                  24
##########                    Molecular_Weight:             337.419
##########                DOCK_Rotatable_Bonds:                   6
##########                       Formal_Charge:               -0.02
##########                     HBond_Acceptors:                   7
##########                        HBond_Donors:                   2
##########                         Heavy_Atoms:                  24
##########                          Grid_Score:          -30.140860
##########                     Grid_vdw_energy:          -28.296371
##########                      Grid_es_energy:           -1.844488
##########           Internal_energy_repulsive:           20.318743

@<TRIPOS>MOLECULE
ZINC001053433946
 51 54 1 0 0
SMALL
USER_CHARGES


@<TRIPOS>ATOM
      1 N1        -14.3905   -2.9184   62.3276 N.am    1  ZINC001053433946   -0.8300
      2 C2        -14.5869   -1.5977   62.1445 C.2     1  ZINC001053433946    0.5600
      3 O3        -14.5993   -0.8484   63.0981 O.2     1  ZINC001053433946   -0.5500
      4 C4        -14.7911   -1.0519   60.7547 C.3     1  ZINC001053433946   -0.1600
      5 H5        -15.6032   -0.3329   60.6466 H       1  ZINC001053433946    0.1400
      6 C6        -14.5194   -1.9928   59.5792 C.3     1  ZINC001053433946   -0.1300
      7 C7        -13.5483   -0.8498   59.8854 C.3     1  ZINC001053433946   -0.1700
      8 H8        -13.5429    0.0018   59.2052 H       1  ZINC001053433946    0.1400
      9 C9        -12.2136   -1.2123   60.4837 C.2     1  ZINC001053433946    0.5400
     10 O10       -11.9157   -0.8122   61.5892 O.2     1  ZINC001053433946   -0.5200
     11 N11       -11.3507   -1.9812   59.7902 N.am    1  ZINC001053433946   -0.6100
     12 C12       -10.0416   -2.3492   60.3519 C.3     1  ZINC001053433946    0.0700
     13 C13        -8.9521   -1.9899   59.3362 C.3     1  ZINC001053433946    0.0500
     14 O14        -9.2558   -2.6021   58.0788 O.3     1  ZINC001053433946   -0.3400
     15 C15       -10.5031   -2.1951   57.5229 C.3     1  ZINC001053433946    0.0800
     16 C16       -10.4935   -0.7668   56.9620 C.3     1  ZINC001053433946   -0.0100
     17 N17       -10.1059   -1.3851   55.6739 N.3     1  ZINC001053433946   -0.4700
     18 C18       -10.8414   -0.7785   54.5562 C.3     1  ZINC001053433946    0.0200
     19 C19        -9.8543   -0.0978   53.6058 C.3     1  ZINC001053433946   -0.1200
     20 H20       -10.2523    0.8693   53.2989 H       1  ZINC001053433946    0.0800
     21 C21        -8.5134    0.1033   54.3185 C.3     1  ZINC001053433946   -0.1200
     22 C22        -7.5111    0.7137   53.3340 C.3     1  ZINC001053433946   -0.1600
     23 C23        -7.3880   -0.1993   52.1114 C.3     1  ZINC001053433946    0.0600
     24 O24        -8.6751   -0.3693   51.5140 O.3     1  ZINC001053433946   -0.3800
     25 C25        -9.6419   -0.9787   52.3719 C.3     1  ZINC001053433946    0.0700
     26 C26       -10.7219   -2.6687   56.0799 C.3     1  ZINC001053433946    0.0200
     27 C27       -11.6911   -2.4849   58.4481 C.3     1  ZINC001053433946    0.1000
     28 H28       -14.2602   -3.2698   63.2223 H       1  ZINC001053433946    0.4000
     29 H29       -14.3834   -3.5181   61.5652 H       1  ZINC001053433946    0.4000
     30 H30       -14.1930   -3.0066   59.8110 H       1  ZINC001053433946    0.1100
     31 H31       -15.1526   -1.8925   58.6976 H       1  ZINC001053433946    0.1200
     32 H32        -9.8735   -1.7993   61.2780 H       1  ZINC001053433946    0.1000
     33 H33       -10.0173   -3.4206   60.5507 H       1  ZINC001053433946    0.0800
     34 H34        -8.9117   -0.9077   59.2135 H       1  ZINC001053433946    0.0600
     35 H35        -7.9880   -2.3520   59.6936 H       1  ZINC001053433946    0.1100
     36 H36       -11.4758   -0.2946   56.9449 H       1  ZINC001053433946    0.0800
     37 H37        -9.7213   -0.1301   57.3939 H       1  ZINC001053433946    0.0900
     38 H38       -11.3884   -1.5529   54.0184 H       1  ZINC001053433946    0.0500
     39 H39       -11.5432   -0.0392   54.9420 H       1  ZINC001053433946    0.0800
     40 H40        -8.6480    0.7758   55.1657 H       1  ZINC001053433946    0.0700
     41 H41        -8.1396   -0.8583   54.6702 H       1  ZINC001053433946    0.0700
     42 H42        -7.8612    1.6972   53.0206 H       1  ZINC001053433946    0.0700
     43 H43        -6.5384    0.8091   53.8168 H       1  ZINC001053433946    0.0700
     44 H44        -6.7082    0.2514   51.3883 H       1  ZINC001053433946    0.0900
     45 H45        -6.9994   -1.1698   52.4199 H       1  ZINC001053433946    0.0500
     46 H46        -9.2837   -1.9595   52.6845 H       1  ZINC001053433946    0.0500
     47 H47       -10.5846   -1.0897   51.8361 H       1  ZINC001053433946    0.1000
     48 H48       -10.1314   -3.5444   55.8104 H       1  ZINC001053433946    0.1000
     49 H49       -11.7718   -2.7599   55.8016 H       1  ZINC001053433946    0.0900
     50 H50       -11.8745   -3.5587   58.4866 H       1  ZINC001053433946    0.0800
     51 H51       -12.5792   -1.9720   58.0788 H       1  ZINC001053433946    0.1000
@<TRIPOS>BOND
     1     1     2   am
     2     1    28    1
     3     1    29    1
     4     2     3    2
     5     2     4    1
     6     4     5    1
     7     4     7    1
     8     4     6    1
     9     6     7    1
    10     6    30    1
    11     6    31    1
    12     7     8    1
    13     7     9    1
    14     9    10    2
    15     9    11   am
    16    11    27    1
    17    11    12    1
    18    12    13    1
    19    12    32    1
    20    12    33    1
    21    13    14    1
    22    13    34    1
    23    13    35    1
    24    14    15    1
    25    15    26    1
    26    15    16    1
    27    15    27    1
    28    16    17    1
    29    16    36    1
    30    16    37    1
    31    17    18    1
    32    17    26    1
    33    18    19    1
    34    18    38    1
    35    18    39    1
    36    19    20    1
    37    19    25    1
    38    19    21    1
    39    21    22    1
    40    21    40    1
    41    21    41    1
    42    22    23    1
    43    22    42    1
    44    22    43    1
    45    23    24    1
    46    23    44    1
    47    23    45    1
    48    24    25    1
    49    25    46    1
    50    25    47    1
    51    26    48    1
    52    26    49    1
    53    27    50    1
    54    27    51    1
@<TRIPOS>SUBSTRUCTURE
     1 ZINC001053433946        1 TEMP              0 ****  ****    0 ROOT


##########                                Name:    ZINC000281092425
##########                DOCK_Rotatable_Bonds:                   8
##########                         Heavy_Atoms:                  23
##########                    Molecular_Weight:             332.304
##########                DOCK_Rotatable_Bonds:                   8
##########                       Formal_Charge:         2.98023e-08
##########                     HBond_Acceptors:                   9
##########                        HBond_Donors:                   2
##########                         Heavy_Atoms:                  23
##########                          Grid_Score:          -30.134176
##########                     Grid_vdw_energy:          -29.481434
##########                      Grid_es_energy:           -0.652743
##########           Internal_energy_repulsive:           20.776146

@<TRIPOS>MOLECULE
ZINC000281092425
 41 42 1 0 0
SMALL
USER_CHARGES


@<TRIPOS>ATOM
      1 O1         -1.8613    0.3688   43.3196 O.2     1  ZINC000281092425   -0.1800
      2 N2         -1.8961   -0.0499   44.4629 N.pl3   1  ZINC000281092425    0.0400
      3 O3         -1.8138   -1.2462   44.6761 O.2     1  ZINC000281092425   -0.1500
      4 C4         -2.0323    0.8957   45.5933 C.ar    1  ZINC000281092425   -0.1200
      5 C5         -2.1255    2.2527   45.3503 C.ar    1  ZINC000281092425    0.0200
      6 C6         -2.2527    3.1386   46.4028 C.ar    1  ZINC000281092425   -0.2200
      7 C7         -2.2876    2.6663   47.7089 C.ar    1  ZINC000281092425    0.3000
      8 N8         -2.4165    3.5615   48.7731 N.pl3   1  ZINC000281092425   -0.7200
      9 C9         -3.3443    3.2685   49.8685 C.3     1  ZINC000281092425    0.1200
     10 C10        -2.7913    3.8453   51.1732 C.3     1  ZINC000281092425   -0.0900
     11 H11        -2.4293    4.8584   50.9980 H       1  ZINC000281092425    0.0900
     12 C12        -3.8994    3.8748   52.2278 C.3     1  ZINC000281092425    0.0800
     13 O13        -4.8191    4.9252   51.9231 O.3     1  ZINC000281092425   -0.5700
     14 C14        -1.6382    2.9706   51.6693 C.3     1  ZINC000281092425   -0.1100
     15 H15        -1.9279    1.9197   51.6808 H       1  ZINC000281092425    0.0900
     16 C16        -0.3688    3.1845   50.8006 C.3     1  ZINC000281092425   -0.1600
     17 C17         0.7468    2.8493   51.8224 C.3     1  ZINC000281092425    0.0500
     18 O18         0.2687    3.3549   53.0790 O.3     1  ZINC000281092425   -0.3900
     19 C19        -1.1654    3.4254   53.0667 C.3     1  ZINC000281092425    0.0700
     20 C20        -2.1943    1.3031   47.9548 C.ar    1  ZINC000281092425   -0.2800
     21 C21        -2.0717    0.4176   46.8959 C.ar    1  ZINC000281092425    0.2300
     22 O22        -1.9808   -0.9175   47.1332 O.3     1  ZINC000281092425   -0.2900
     23 C23        -0.7477   -1.3981   47.6720 C.3     1  ZINC000281092425    0.4100
     24 F24        -0.8085   -2.7893   47.8072 F       1  ZINC000281092425   -0.1900
     25 F25         0.3014   -1.0587   46.8109 F       1  ZINC000281092425   -0.1900
     26 H26        -2.0987    2.6216   44.3356 H       1  ZINC000281092425    0.1600
     27 H27        -2.3248    4.1988   46.2103 H       1  ZINC000281092425    0.1500
     28 H28        -1.8919    4.3772   48.7871 H       1  ZINC000281092425    0.4100
     29 H29        -4.3134    3.7189   49.6540 H       1  ZINC000281092425    0.0800
     30 H30        -3.4592    2.1892   49.9683 H       1  ZINC000281092425    0.0800
     31 H31        -4.4254    2.9202   52.2290 H       1  ZINC000281092425    0.0500
     32 H32        -3.4611    4.0493   53.2105 H       1  ZINC000281092425    0.0500
     33 H33        -5.2479    4.8347   51.0611 H       1  ZINC000281092425    0.3800
     34 H34        -0.3491    2.4945   49.9570 H       1  ZINC000281092425    0.0800
     35 H35        -0.2938    4.2179   50.4623 H       1  ZINC000281092425    0.0800
     36 H36         0.8951    1.7709   51.8804 H       1  ZINC000281092425    0.0600
     37 H37         1.6764    3.3454   51.5439 H       1  ZINC000281092425    0.0900
     38 H38        -1.4867    4.4512   53.2473 H       1  ZINC000281092425    0.0800
     39 H39        -1.5744    2.7681   53.8341 H       1  ZINC000281092425    0.0700
     40 H40        -2.2212    0.9332   48.9691 H       1  ZINC000281092425    0.1500
     41 H41        -0.5769   -0.9452   48.6487 H       1  ZINC000281092425    0.1900
@<TRIPOS>BOND
     1     1     2    2
     2     2     3    2
     3     2     4    1
     4     4    21   ar
     5     4     5   ar
     6     5     6   ar
     7     5    26    1
     8     6     7   ar
     9     6    27    1
    10     7     8    1
    11     7    20   ar
    12     8     9    1
    13     8    28    1
    14     9    10    1
    15     9    29    1
    16     9    30    1
    17    10    11    1
    18    10    12    1
    19    10    14    1
    20    12    13    1
    21    12    31    1
    22    12    32    1
    23    13    33    1
    24    14    15    1
    25    14    19    1
    26    14    16    1
    27    16    17    1
    28    16    34    1
    29    16    35    1
    30    17    18    1
    31    17    36    1
    32    17    37    1
    33    18    19    1
    34    19    38    1
    35    19    39    1
    36    20    21   ar
    37    20    40    1
    38    21    22    1
    39    22    23    1
    40    23    24    1
    41    23    25    1
    42    23    41    1
@<TRIPOS>SUBSTRUCTURE
     1 ZINC000281092425        1 TEMP              0 ****  ****    0 ROOT


##########                                Name:    ZINC000119180466
##########                DOCK_Rotatable_Bonds:                  10
##########                         Heavy_Atoms:                  23
##########                    Molecular_Weight:             350.405
##########                DOCK_Rotatable_Bonds:                  10
##########                       Formal_Charge:           0.0299997
##########                     HBond_Acceptors:                   8
##########                        HBond_Donors:                   3
##########                         Heavy_Atoms:                  23
##########                          Grid_Score:          -30.120285
##########                     Grid_vdw_energy:          -30.025026
##########                      Grid_es_energy:           -0.095259
##########           Internal_energy_repulsive:           13.528847

@<TRIPOS>MOLECULE
ZINC000119180466
 44 44 1 0 0
SMALL
USER_CHARGES


@<TRIPOS>ATOM
      1 C1         -8.6797   -1.0452   60.6703 C.3     1  ZINC000119180466   -0.1300
      2 S2         -8.6995   -1.5219   58.9202 S.3     1  ZINC000119180466   -0.2200
      3 C3        -10.4225   -2.0222   58.6530 C.3     1  ZINC000119180466   -0.0700
      4 H4        -11.0832   -1.1857   58.8806 H       1  ZINC000119180466    0.1100
      5 C5        -10.7590   -3.2014   59.5679 C.3     1  ZINC000119180466    0.0800
      6 O6         -9.9075   -4.3054   59.2546 O.3     1  ZINC000119180466   -0.5600
      7 C7        -10.6120   -2.4391   57.1931 C.3     1  ZINC000119180466    0.1900
      8 H8        -10.0544   -3.3560   57.0019 H       1  ZINC000119180466    0.1000
      9 C9        -12.0981   -2.6796   56.9202 C.3     1  ZINC000119180466   -0.1700
     10 N10       -10.1197   -1.3758   56.3139 N.am    1  ZINC000119180466   -0.7200
     11 C11        -9.6522   -1.6787   55.0866 C.2     1  ZINC000119180466    0.7100
     12 O12        -9.6404   -2.8343   54.7086 O.2     1  ZINC000119180466   -0.6000
     13 N13        -9.1978   -0.7006   54.2782 N.am    1  ZINC000119180466   -0.7400
     14 C14        -8.6912   -1.0296   52.9435 C.3     1  ZINC000119180466    0.2000
     15 H15        -8.3381   -2.0607   52.9329 H       1  ZINC000119180466    0.1000
     16 C16        -9.8138   -0.8645   51.9170 C.3     1  ZINC000119180466   -0.1600
     17 C17        -7.5530   -0.1051   52.5963 C.ar    1  ZINC000119180466   -0.0600
     18 C18        -6.5200   -0.5516   51.7934 C.ar    1  ZINC000119180466   -0.1100
     19 C19        -5.4759    0.2965   51.4751 C.ar    1  ZINC000119180466   -0.0600
     20 C20        -5.4649    1.5913   51.9592 C.ar    1  ZINC000119180466   -0.1800
     21 C21        -4.3264    2.5157   51.6126 C.3     1  ZINC000119180466    0.5100
     22 F22        -3.2505    2.2736   52.4736 F       1  ZINC000119180466   -0.1800
     23 F23        -3.9266    2.2883   50.2914 F       1  ZINC000119180466   -0.1800
     24 F24        -4.7449    3.8434   51.7512 F       1  ZINC000119180466   -0.1800
     25 C25        -6.4984    2.0382   52.7610 C.ar    1  ZINC000119180466   -0.0600
     26 C26        -7.5446    1.1913   53.0762 C.ar    1  ZINC000119180466   -0.1100
     27 H27        -8.9677   -1.8996   61.2829 H       1  ZINC000119180466    0.0800
     28 H28        -7.6765   -0.7212   60.9473 H       1  ZINC000119180466    0.1000
     29 H29        -9.3830   -0.2284   60.8325 H       1  ZINC000119180466    0.0800
     30 H30       -10.6080   -2.9095   60.6072 H       1  ZINC000119180466    0.0500
     31 H31       -11.7992   -3.4912   59.4194 H       1  ZINC000119180466    0.0600
     32 H32        -8.9641   -4.0947   59.2829 H       1  ZINC000119180466    0.3800
     33 H33       -12.6557   -1.7627   57.1114 H       1  ZINC000119180466    0.0700
     34 H34       -12.2330   -2.9766   55.8801 H       1  ZINC000119180466    0.0700
     35 H35       -12.4644   -3.4707   57.5744 H       1  ZINC000119180466    0.0700
     36 H36       -10.1303   -0.4538   56.6148 H       1  ZINC000119180466    0.4100
     37 H37        -9.2062    0.2211   54.5801 H       1  ZINC000119180466    0.4000
     38 H38        -9.4369   -1.1092   50.9240 H       1  ZINC000119180466    0.0700
     39 H39       -10.6371   -1.5332   52.1682 H       1  ZINC000119180466    0.0700
     40 H40       -10.1669    0.1666   51.9276 H       1  ZINC000119180466    0.0600
     41 H41        -6.5287   -1.5631   51.4153 H       1  ZINC000119180466    0.1300
     42 H42        -4.6686   -0.0526   50.8484 H       1  ZINC000119180466    0.1400
     43 H43        -6.4900    3.0499   53.1390 H       1  ZINC000119180466    0.1400
     44 H44        -8.3521    1.5404   53.7027 H       1  ZINC000119180466    0.1400
@<TRIPOS>BOND
     1     1     2    1
     2     1    27    1
     3     1    28    1
     4     1    29    1
     5     2     3    1
     6     3     4    1
     7     3     5    1
     8     3     7    1
     9     5     6    1
    10     5    30    1
    11     5    31    1
    12     6    32    1
    13     7     8    1
    14     7     9    1
    15     7    10    1
    16     9    33    1
    17     9    34    1
    18     9    35    1
    19    10    11   am
    20    10    36    1
    21    11    12    2
    22    11    13   am
    23    13    14    1
    24    13    37    1
    25    14    15    1
    26    14    16    1
    27    14    17    1
    28    16    38    1
    29    16    39    1
    30    16    40    1
    31    17    26   ar
    32    17    18   ar
    33    18    19   ar
    34    18    41    1
    35    19    20   ar
    36    19    42    1
    37    20    21    1
    38    20    25   ar
    39    21    22    1
    40    21    23    1
    41    21    24    1
    42    25    26   ar
    43    25    43    1
    44    26    44    1
@<TRIPOS>SUBSTRUCTURE
     1 ZINC000119180466        1 TEMP              0 ****  ****    0 ROOT


##########                                Name:    ZINC000516003207
##########                DOCK_Rotatable_Bonds:                   5
##########                         Heavy_Atoms:                  24
##########                    Molecular_Weight:             342.462
##########                DOCK_Rotatable_Bonds:                   5
##########                       Formal_Charge:          -0.0200001
##########                     HBond_Acceptors:                   5
##########                        HBond_Donors:                   1
##########                         Heavy_Atoms:                  24
##########                          Grid_Score:          -30.119888
##########                     Grid_vdw_energy:          -30.798286
##########                      Grid_es_energy:            0.678398
##########           Internal_energy_repulsive:            8.442994

@<TRIPOS>MOLECULE
ZINC000516003207
 46 49 1 0 0
SMALL
USER_CHARGES


@<TRIPOS>ATOM
      1 C1          1.5286    0.8586   44.5346 C.3     1  ZINC000516003207    0.0300
      2 O2          0.4088    1.2521   45.3306 O.3     1  ZINC000516003207   -0.3600
      3 C3          0.6601    1.2326   46.7371 C.3     1  ZINC000516003207    0.0900
      4 H4          1.7000    1.0133   46.9790 H       1  ZINC000516003207    0.0800
      5 C5          0.0972    2.4564   47.4823 C.3     1  ZINC000516003207   -0.1700
      6 C6         -1.2037    1.6541   47.6673 C.3     1  ZINC000516003207    0.1500
      7 H7         -1.9191    1.7875   46.8560 H       1  ZINC000516003207    0.1200
      8 N8         -1.8087    1.8124   48.9922 N.am    1  ZINC000516003207   -0.7200
      9 C9         -3.1423    1.9683   49.1096 C.2     1  ZINC000516003207    0.5600
     10 O10        -3.8431    1.9761   48.1165 O.2     1  ZINC000516003207   -0.5300
     11 C11        -3.7529    2.1299   50.4466 C.ar    1  ZINC000516003207   -0.1400
     12 C12        -3.2428    3.0744   51.3394 C.ar    1  ZINC000516003207   -0.0800
     13 C13        -3.8123    3.2252   52.5881 C.ar    1  ZINC000516003207   -0.1200
     14 C14        -4.8886    2.4446   52.9615 C.ar    1  ZINC000516003207   -0.0800
     15 C15        -5.4077    1.4978   52.0785 C.ar    1  ZINC000516003207   -0.0300
     16 C16        -6.5640    0.6606   52.4823 C.2     1  ZINC000516003207    0.1100
     17 C17        -7.0998   -0.2845   51.6839 C.2     1  ZINC000516003207   -0.2600
     18 S18        -8.4397   -1.0295   52.5517 S.3     1  ZINC000516003207    0.1400
     19 C19        -8.1552   -0.0094   53.8931 C.2     1  ZINC000516003207    0.0600
     20 C20        -8.9556   -0.0258   55.1700 C.3     1  ZINC000516003207   -0.0800
     21 N21        -7.1577    0.7720   53.6618 N.2     1  ZINC000516003207   -0.4700
     22 C22        -4.8428    1.3436   50.8168 C.ar    1  ZINC000516003207   -0.0300
     23 C23        -0.3440    0.3936   47.5283 C.3     1  ZINC000516003207   -0.1100
     24 C24        -0.9236   -0.8991   46.9528 C.3     1  ZINC000516003207   -0.1200
     25 C25         0.0885   -1.6459   47.8405 C.3     1  ZINC000516003207   -0.1400
     26 C26         0.0876   -0.4086   48.7564 C.3     1  ZINC000516003207   -0.1200
     27 H27         1.8200   -0.1589   44.7952 H       1  ZINC000516003207    0.0400
     28 H28         1.2571    0.8999   43.4798 H       1  ZINC000516003207    0.0900
     29 H29         2.3629    1.5348   44.7218 H       1  ZINC000516003207    0.0400
     30 H30         0.6130    2.6725   48.4180 H       1  ZINC000516003207    0.0900
     31 H31        -0.0195    3.3364   46.8498 H       1  ZINC000516003207    0.0800
     32 H32        -1.2496    1.8050   49.7848 H       1  ZINC000516003207    0.4000
     33 H33        -2.4013    3.6877   51.0530 H       1  ZINC000516003207    0.1300
     34 H34        -3.4141    3.9566   53.2759 H       1  ZINC000516003207    0.1400
     35 H35        -5.3293    2.5672   53.9398 H       1  ZINC000516003207    0.1300
     36 H36        -6.7668   -0.5393   50.6886 H       1  ZINC000516003207    0.1800
     37 H37        -9.7356   -0.7839   55.1001 H       1  ZINC000516003207    0.0800
     38 H38        -8.2980   -0.2572   56.0080 H       1  ZINC000516003207    0.0900
     39 H39        -9.4118    0.9518   55.3255 H       1  ZINC000516003207    0.0900
     40 H40        -5.2414    0.6118   50.1299 H       1  ZINC000516003207    0.1500
     41 H41        -1.9627   -1.0747   47.2313 H       1  ZINC000516003207    0.0800
     42 H42        -0.7432   -1.0221   45.8849 H       1  ZINC000516003207    0.0800
     43 H43        -0.3213   -2.5385   48.3130 H       1  ZINC000516003207    0.0700
     44 H44         1.0464   -1.8265   47.3525 H       1  ZINC000516003207    0.0800
     45 H45         1.0759   -0.1396   49.1294 H       1  ZINC000516003207    0.0700
     46 H46        -0.6673   -0.4462   49.5418 H       1  ZINC000516003207    0.0900
@<TRIPOS>BOND
     1     1     2    1
     2     1    27    1
     3     1    28    1
     4     1    29    1
     5     2     3    1
     6     3     4    1
     7     3    23    1
     8     3     5    1
     9     5     6    1
    10     5    30    1
    11     5    31    1
    12     6     7    1
    13     6     8    1
    14     6    23    1
    15     8     9   am
    16     8    32    1
    17     9    10    2
    18     9    11    1
    19    11    22   ar
    20    11    12   ar
    21    12    13   ar
    22    12    33    1
    23    13    14   ar
    24    13    34    1
    25    14    15   ar
    26    14    35    1
    27    15    16    1
    28    15    22   ar
    29    16    21    1
    30    16    17    2
    31    17    18    1
    32    17    36    1
    33    18    19    1
    34    19    20    1
    35    19    21    2
    36    20    37    1
    37    20    38    1
    38    20    39    1
    39    22    40    1
    40    23    26    1
    41    23    24    1
    42    24    25    1
    43    24    41    1
    44    24    42    1
    45    25    26    1
    46    25    43    1
    47    25    44    1
    48    26    45    1
    49    26    46    1
@<TRIPOS>SUBSTRUCTURE
     1 ZINC000516003207        1 TEMP              0 ****  ****    0 ROOT


##########                                Name:    ZINC001513543414
##########                DOCK_Rotatable_Bonds:                   6
##########                         Heavy_Atoms:                  26
##########                    Molecular_Weight:             364.488
##########                DOCK_Rotatable_Bonds:                   6
##########                       Formal_Charge:         -0.00999974
##########                     HBond_Acceptors:                   7
##########                        HBond_Donors:                   0
##########                         Heavy_Atoms:                  26
##########                          Grid_Score:          -30.099405
##########                     Grid_vdw_energy:          -31.050098
##########                      Grid_es_energy:            0.950693
##########           Internal_energy_repulsive:           14.786734

@<TRIPOS>MOLECULE
ZINC001513543414
 58 61 1 0 0
SMALL
USER_CHARGES


@<TRIPOS>ATOM
      1 C1        -14.3317   -0.4817   55.6994 C.3     1  ZINC001513543414   -0.1500
      2 C2        -14.8603   -0.8934   57.0749 C.3     1  ZINC001513543414   -0.1200
      3 C3        -13.9575   -1.9790   57.6642 C.3     1  ZINC001513543414    0.1100
      4 C4        -14.1174   -2.0174   59.1853 C.3     1  ZINC001513543414   -0.1500
      5 C5        -14.3271   -3.3516   57.0620 C.3     1  ZINC001513543414   -0.1500
      6 C6        -12.9354   -4.0146   56.8739 C.3     1  ZINC001513543414   -0.1500
      7 C7        -12.0667   -2.7806   56.5227 C.3     1  ZINC001513543414    0.0700
      8 H8        -12.1618   -2.5401   55.4637 H       1  ZINC001513543414    0.0800
      9 C9        -10.6018   -3.0441   56.8771 C.3     1  ZINC001513543414    0.1100
     10 N10        -9.8716   -1.7745   56.9106 N.pl3   1  ZINC001513543414   -0.4600
     11 C11        -9.5513   -0.9781   55.8462 C.2     1  ZINC001513543414    0.1900
     12 C12        -9.8858   -1.2419   54.4007 C.3     1  ZINC001513543414    0.1800
     13 H13       -10.4121   -2.1913   54.3020 H       1  ZINC001513543414    0.1000
     14 C14       -10.7467   -0.0877   53.8285 C.3     1  ZINC001513543414   -0.1500
     15 C15       -10.4254   -0.2032   52.3135 C.3     1  ZINC001513543414   -0.1500
     16 C16        -8.9506   -0.6597   52.3253 C.3     1  ZINC001513543414    0.0500
     17 O17        -8.6895   -1.2500   53.6056 O.3     1  ZINC001513543414   -0.3500
     18 N18        -8.9041    0.0517   56.3136 N.2     1  ZINC001513543414   -0.2600
     19 N19        -8.7945   -0.0393   57.5909 N.2     1  ZINC001513543414   -0.3100
     20 C20        -9.3751   -1.1385   58.0110 C.2     1  ZINC001513543414    0.3400
     21 N21        -9.4604   -1.5753   59.3234 N.3     1  ZINC001513543414   -0.4500
     22 C22       -10.5208   -0.8503   60.0552 C.3     1  ZINC001513543414    0.0500
     23 C23        -9.9922   -0.7355   61.5067 C.3     1  ZINC001513543414   -0.1500
     24 C24        -8.4760   -0.5066   61.2708 C.3     1  ZINC001513543414    0.0700
     25 H25        -8.2727    0.5437   61.0618 H       1  ZINC001513543414    0.0800
     26 O26        -7.7166   -0.9522   62.3964 O.3     1  ZINC001513543414   -0.3800
     27 C27        -7.8001   -0.0892   63.5323 C.3     1  ZINC001513543414    0.0300
     28 C28        -8.1820   -1.3766   60.0305 C.3     1  ZINC001513543414    0.0600
     29 O29       -12.5915   -1.7115   57.3258 O.3     1  ZINC001513543414   -0.3600
     30 H30       -14.9749    0.2917   55.2797 H       1  ZINC001513543414    0.0500
     31 H31       -13.3176   -0.0952   55.8007 H       1  ZINC001513543414    0.0500
     32 H32       -14.3260   -1.3481   55.0381 H       1  ZINC001513543414    0.0600
     33 H33       -14.8660   -0.0271   57.7362 H       1  ZINC001513543414    0.0700
     34 H34       -15.8745   -1.2798   56.9736 H       1  ZINC001513543414    0.0600
     35 H35       -15.1525   -2.2491   59.4361 H       1  ZINC001513543414    0.0700
     36 H36       -13.4627   -2.7839   59.6003 H       1  ZINC001513543414    0.0600
     37 H37       -13.8508   -1.0468   59.6033 H       1  ZINC001513543414    0.0700
     38 H38       -14.9404   -3.9270   57.7554 H       1  ZINC001513543414    0.0900
     39 H39       -14.8322   -3.2313   56.1035 H       1  ZINC001513543414    0.0800
     40 H40       -12.5959   -4.4840   57.7973 H       1  ZINC001513543414    0.0800
     41 H41       -12.9495   -4.7317   56.0531 H       1  ZINC001513543414    0.0900
     42 H42       -10.5449   -3.5219   57.8550 H       1  ZINC001513543414    0.1000
     43 H43       -10.1585   -3.6985   56.1264 H       1  ZINC001513543414    0.1100
     44 H44       -11.8066   -0.2564   54.0193 H       1  ZINC001513543414    0.0900
     45 H45       -10.4265    0.8755   54.2258 H       1  ZINC001513543414    0.0900
     46 H46       -11.0595   -0.9518   51.8384 H       1  ZINC001513543414    0.0800
     47 H47       -10.5283    0.7634   51.8203 H       1  ZINC001513543414    0.0900
     48 H48        -8.7855   -1.3966   51.5393 H       1  ZINC001513543414    0.0700
     49 H49        -8.2967    0.1987   52.1724 H       1  ZINC001513543414    0.0700
     50 H50       -10.6688    0.1405   59.6257 H       1  ZINC001513543414    0.0600
     51 H51       -11.4518   -1.4169   60.0342 H       1  ZINC001513543414    0.0900
     52 H52       -10.4404    0.1157   62.0194 H       1  ZINC001513543414    0.0800
     53 H53       -10.1663   -1.6583   62.0599 H       1  ZINC001513543414    0.0900
     54 H54        -7.1969   -0.4968   64.3435 H       1  ZINC001513543414    0.0900
     55 H55        -7.4289    0.9001   63.2650 H       1  ZINC001513543414    0.0400
     56 H56        -8.8386   -0.0126   63.8548 H       1  ZINC001513543414    0.0400
     57 H57        -7.7762   -2.3395   60.3409 H       1  ZINC001513543414    0.1000
     58 H58        -7.4732   -0.8656   59.3789 H       1  ZINC001513543414    0.0900
@<TRIPOS>BOND
     1     1     2    1
     2     1    30    1
     3     1    31    1
     4     1    32    1
     5     2     3    1
     6     2    33    1
     7     2    34    1
     8     3    29    1
     9     3     4    1
    10     3     5    1
    11     4    35    1
    12     4    36    1
    13     4    37    1
    14     5     6    1
    15     5    38    1
    16     5    39    1
    17     6     7    1
    18     6    40    1
    19     6    41    1
    20     7     8    1
    21     7     9    1
    22     7    29    1
    23     9    10    1
    24     9    42    1
    25     9    43    1
    26    10    20    1
    27    10    11    1
    28    11    12    1
    29    11    18    2
    30    12    13    1
    31    12    17    1
    32    12    14    1
    33    14    15    1
    34    14    44    1
    35    14    45    1
    36    15    16    1
    37    15    46    1
    38    15    47    1
    39    16    17    1
    40    16    48    1
    41    16    49    1
    42    18    19    1
    43    19    20    2
    44    20    21    1
    45    21    28    1
    46    21    22    1
    47    22    23    1
    48    22    50    1
    49    22    51    1
    50    23    24    1
    51    23    52    1
    52    23    53    1
    53    24    25    1
    54    24    26    1
    55    24    28    1
    56    26    27    1
    57    27    54    1
    58    27    55    1
    59    27    56    1
    60    28    57    1
    61    28    58    1
@<TRIPOS>SUBSTRUCTURE
     1 ZINC001513543414        1 TEMP              0 ****  ****    0 ROOT


##########                                Name:    ZINC001570985666
##########                DOCK_Rotatable_Bonds:                   7
##########                         Heavy_Atoms:                  26
##########                    Molecular_Weight:             357.415
##########                DOCK_Rotatable_Bonds:                   7
##########                       Formal_Charge:          -0.0100001
##########                     HBond_Acceptors:                   9
##########                        HBond_Donors:                   3
##########                         Heavy_Atoms:                  26
##########                          Grid_Score:          -30.099016
##########                     Grid_vdw_energy:          -27.547083
##########                      Grid_es_energy:           -2.551933
##########           Internal_energy_repulsive:           10.953907

@<TRIPOS>MOLECULE
ZINC001570985666
 49 52 1 0 0
SMALL
USER_CHARGES


@<TRIPOS>ATOM
      1 C1        -11.2869   -0.9170   57.8374 C.3     1  ZINC001570985666   -0.1600
      2 C2         -9.7670   -0.7473   57.8821 C.3     1  ZINC001570985666    0.1300
      3 H3         -9.3048   -1.6507   58.2797 H       1  ZINC001570985666    0.0800
      4 C4         -9.3999    0.4631   58.7665 C.3     1  ZINC001570985666    0.1400
      5 H5        -10.2345    1.1612   58.8305 H       1  ZINC001570985666    0.1100
      6 N6         -8.9908    0.0234   60.1028 N.am    1  ZINC001570985666   -0.7200
      7 C7         -9.2249    0.8098   61.1719 C.2     1  ZINC001570985666    0.6000
      8 O8         -9.7744    1.8851   61.0273 O.2     1  ZINC001570985666   -0.5300
      9 C9         -8.8152    0.3669   62.5159 C.2     1  ZINC001570985666   -0.2300
     10 C10        -7.9478   -0.6625   62.8113 C.2     1  ZINC001570985666    0.0700
     11 N11        -7.8352   -0.7480   64.1518 N.pl3   1  ZINC001570985666   -0.5200
     12 C12        -8.6206    0.2156   64.7348 C.2     1  ZINC001570985666    0.0600
     13 C13        -8.7689    0.4474   66.1891 C.2     1  ZINC001570985666    0.2500
     14 N14        -9.5226    1.3624   66.7689 N.2     1  ZINC001570985666   -0.3100
     15 N15        -9.3786    1.2411   68.0439 N.pl3   1  ZINC001570985666   -0.2200
     16 N16        -8.5590    0.2798   68.2910 N.2     1  ZINC001570985666   -0.0400
     17 N17        -8.1678   -0.2355   67.1753 N.2     1  ZINC001570985666   -0.2600
     18 C18        -9.2337    0.9231   63.7525 C.2     1  ZINC001570985666   -0.0600
     19 C19        -8.2078    1.1008   58.0053 C.3     1  ZINC001570985666   -0.1500
     20 C20        -8.6131    0.8549   56.5305 C.3     1  ZINC001570985666    0.1000
     21 N21        -9.2542   -0.4763   56.5312 N.am    1  ZINC001570985666   -0.6200
     22 C22        -9.3527   -1.3011   55.4698 C.2     1  ZINC001570985666    0.5300
     23 O23        -9.9037   -2.3753   55.5858 O.2     1  ZINC001570985666   -0.5300
     24 C24        -8.7784   -0.8885   54.1390 C.3     1  ZINC001570985666   -0.1300
     25 C25        -9.6488    0.2107   53.5268 C.3     1  ZINC001570985666   -0.1000
     26 C26        -9.4112    0.4180   52.0216 C.3     1  ZINC001570985666   -0.1300
     27 C27       -10.9330    0.5936   51.8856 C.3     1  ZINC001570985666   -0.1400
     28 C28       -11.0661   -0.2591   53.1584 C.3     1  ZINC001570985666   -0.1400
     29 H29       -11.5389   -1.7697   57.2068 H       1  ZINC001570985666    0.0700
     30 H30       -11.6633   -1.0872   58.8460 H       1  ZINC001570985666    0.0700
     31 H31       -11.7413   -0.0151   57.4273 H       1  ZINC001570985666    0.0600
     32 H32        -8.5515   -0.8337   60.2180 H       1  ZINC001570985666    0.4000
     33 H33        -7.4452   -1.2927   62.0926 H       1  ZINC001570985666    0.1800
     34 H34        -7.2861   -1.3893   64.6292 H       1  ZINC001570985666    0.4300
     35 H35        -9.8188    1.7887   68.7126 H       1  ZINC001570985666    0.4800
     36 H36        -9.9164    1.7491   63.8866 H       1  ZINC001570985666    0.1600
     37 H37        -8.1343    2.1673   58.2177 H       1  ZINC001570985666    0.0900
     38 H38        -7.2742    0.5912   58.2440 H       1  ZINC001570985666    0.0800
     39 H39        -9.3185    1.6167   56.1989 H       1  ZINC001570985666    0.0800
     40 H40        -7.7309    0.8492   55.8905 H       1  ZINC001570985666    0.0800
     41 H41        -7.7653   -0.5127   54.2812 H       1  ZINC001570985666    0.0900
     42 H42        -8.7564   -1.7491   53.4704 H       1  ZINC001570985666    0.0900
     43 H43        -9.6316    1.1351   54.1042 H       1  ZINC001570985666    0.1000
     44 H44        -8.8451    1.3199   51.7891 H       1  ZINC001570985666    0.0700
     45 H45        -9.0268   -0.4669   51.5144 H       1  ZINC001570985666    0.0800
     46 H46       -11.2667    1.6234   52.0131 H       1  ZINC001570985666    0.0800
     47 H47       -11.3495    0.1195   50.9969 H       1  ZINC001570985666    0.0700
     48 H48       -11.1340   -1.3291   52.9619 H       1  ZINC001570985666    0.0800
     49 H49       -11.8358    0.0962   53.8434 H       1  ZINC001570985666    0.0700
@<TRIPOS>BOND
     1     1     2    1
     2     1    29    1
     3     1    30    1
     4     1    31    1
     5     2     3    1
     6     2    21    1
     7     2     4    1
     8     4     5    1
     9     4     6    1
    10     4    19    1
    11     6     7   am
    12     6    32    1
    13     7     8    2
    14     7     9    1
    15     9    18    1
    16     9    10    2
    17    10    11    1
    18    10    33    1
    19    11    12    1
    20    11    34    1
    21    12    13    1
    22    12    18    2
    23    13    17    1
    24    13    14    2
    25    14    15    1
    26    15    16    1
    27    15    35    1
    28    16    17    2
    29    18    36    1
    30    19    20    1
    31    19    37    1
    32    19    38    1
    33    20    21    1
    34    20    39    1
    35    20    40    1
    36    21    22   am
    37    22    23    2
    38    22    24    1
    39    24    25    1
    40    24    41    1
    41    24    42    1
    42    25    28    1
    43    25    26    1
    44    25    43    1
    45    26    27    1
    46    26    44    1
    47    26    45    1
    48    27    28    1
    49    27    46    1
    50    27    47    1
    51    28    48    1
    52    28    49    1
@<TRIPOS>SUBSTRUCTURE
     1 ZINC001570985666        1 TEMP              0 ****  ****    0 ROOT


##########                                Name:    ZINC000822449555
##########                DOCK_Rotatable_Bonds:                   5
##########                         Heavy_Atoms:                  27
##########                    Molecular_Weight:             366.383
##########                DOCK_Rotatable_Bonds:                   5
##########                       Formal_Charge:          -0.0100009
##########                     HBond_Acceptors:                  10
##########                        HBond_Donors:                   2
##########                         Heavy_Atoms:                  27
##########                          Grid_Score:          -30.097368
##########                     Grid_vdw_energy:          -30.258881
##########                      Grid_es_energy:            0.161513
##########           Internal_energy_repulsive:            8.797061

@<TRIPOS>MOLECULE
ZINC000822449555
 45 48 1 0 0
SMALL
USER_CHARGES


@<TRIPOS>ATOM
      1 C1        -12.4680    0.1689   55.2682 C.3     1  ZINC000822449555   -0.1100
      2 C2        -12.0891   -0.6660   56.4644 C.ar    1  ZINC000822449555    0.1400
      3 N3        -13.0350   -1.2052   57.2093 N.ar    1  ZINC000822449555   -0.5000
      4 C4        -12.7487   -1.9455   58.2688 C.ar    1  ZINC000822449555    0.3000
      5 N5        -13.7813   -2.4938   59.0246 N.3     1  ZINC000822449555   -0.4700
      6 C6        -15.0541   -2.4467   58.2904 C.3     1  ZINC000822449555    0.0200
      7 C7        -16.1470   -3.1118   59.1312 C.3     1  ZINC000822449555    0.0600
      8 O8        -16.2296   -2.4575   60.4002 O.3     1  ZINC000822449555   -0.3800
      9 C9        -15.0075   -2.4849   61.1427 C.3     1  ZINC000822449555    0.0600
     10 C10       -13.9030   -1.8135   60.3222 C.3     1  ZINC000822449555    0.0300
     11 C11       -11.4280   -2.1819   58.6350 C.ar    1  ZINC000822449555   -0.1700
     12 C12       -10.4098   -1.6327   57.8775 C.ar    1  ZINC000822449555   -0.0500
     13 C13       -10.7499   -0.8632   56.7661 C.ar    1  ZINC000822449555    0.0600
     14 N14        -9.7513   -0.2872   55.9698 N.am    1  ZINC000822449555   -0.6600
     15 C15        -9.3299   -0.9182   54.8560 C.2     1  ZINC000822449555    0.5700
     16 O16        -9.8163   -1.9875   54.5421 O.2     1  ZINC000822449555   -0.5100
     17 C17        -8.2772   -0.3109   54.0167 C.ar    1  ZINC000822449555   -0.1800
     18 C18        -7.8248   -0.9633   52.8618 C.ar    1  ZINC000822449555   -0.0100
     19 C19        -6.8388   -0.3565   52.1087 C.ar    1  ZINC000822449555   -0.1300
     20 C20        -6.3302    0.8750   52.5188 C.ar    1  ZINC000822449555    0.2300
     21 C21        -5.2711    1.5335   51.7158 C.2     1  ZINC000822449555    0.2100
     22 N22        -4.6606    2.6683   51.9963 N.2     1  ZINC000822449555   -0.2500
     23 N23        -3.8083    2.8999   51.0579 N.pl3   1  ZINC000822449555   -0.2200
     24 N24        -3.8591    1.9487   50.1920 N.2     1  ZINC000822449555   -0.0400
     25 N25        -4.7438    1.0879   50.5662 N.2     1  ZINC000822449555   -0.2500
     26 N26        -6.7815    1.4665   53.6184 N.ar    1  ZINC000822449555   -0.4500
     27 C27        -7.7228    0.9244   54.3596 C.ar    1  ZINC000822449555    0.1400
     28 H28       -12.5503   -0.4712   54.3898 H       1  ZINC000822449555    0.0800
     29 H29       -13.4253    0.6561   55.4537 H       1  ZINC000822449555    0.0800
     30 H30       -11.7025    0.9255   55.0960 H       1  ZINC000822449555    0.0700
     31 H31       -15.3246   -1.4087   58.0971 H       1  ZINC000822449555    0.0600
     32 H32       -14.9485   -2.9782   57.3446 H       1  ZINC000822449555    0.1000
     33 H33       -17.1039   -3.0286   58.6159 H       1  ZINC000822449555    0.1100
     34 H34       -15.9028   -4.1637   59.2792 H       1  ZINC000822449555    0.0600
     35 H35       -15.1404   -1.9484   62.0822 H       1  ZINC000822449555    0.1000
     36 H36       -14.7303   -3.5186   61.3492 H       1  ZINC000822449555    0.0600
     37 H37       -12.9573   -1.8827   60.8596 H       1  ZINC000822449555    0.1000
     38 H38       -14.1553   -0.7653   60.1614 H       1  ZINC000822449555    0.0600
     39 H39       -11.2006   -2.7867   59.5004 H       1  ZINC000822449555    0.1400
     40 H40        -9.3751   -1.7993   58.1386 H       1  ZINC000822449555    0.1500
     41 H41        -9.3632    0.5659   56.2203 H       1  ZINC000822449555    0.4100
     42 H42        -8.2368   -1.9174   52.5681 H       1  ZINC000822449555    0.1600
     43 H43        -6.4660   -0.8307   51.2129 H       1  ZINC000822449555    0.1600
     44 H44        -3.2207    3.6701   51.0113 H       1  ZINC000822449555    0.4800
     45 H45        -8.0647    1.4356   55.2474 H       1  ZINC000822449555    0.1700
@<TRIPOS>BOND
     1     1     2    1
     2     1    28    1
     3     1    29    1
     4     1    30    1
     5     2    13   ar
     6     2     3   ar
     7     3     4   ar
     8     4     5    1
     9     4    11   ar
    10     5    10    1
    11     5     6    1
    12     6     7    1
    13     6    31    1
    14     6    32    1
    15     7     8    1
    16     7    33    1
    17     7    34    1
    18     8     9    1
    19     9    10    1
    20     9    35    1
    21     9    36    1
    22    10    37    1
    23    10    38    1
    24    11    12   ar
    25    11    39    1
    26    12    13   ar
    27    12    40    1
    28    13    14    1
    29    14    15   am
    30    14    41    1
    31    15    16    2
    32    15    17    1
    33    17    27   ar
    34    17    18   ar
    35    18    19   ar
    36    18    42    1
    37    19    20   ar
    38    19    43    1
    39    20    21    1
    40    20    26   ar
    41    21    25    1
    42    21    22    2
    43    22    23    1
    44    23    24    1
    45    23    44    1
    46    24    25    2
    47    26    27   ar
    48    27    45    1
@<TRIPOS>SUBSTRUCTURE
     1 ZINC000822449555        1 TEMP              0 ****  ****    0 ROOT


##########                                Name:    ZINC000350493047
##########                DOCK_Rotatable_Bonds:                   7
##########                         Heavy_Atoms:                  24
##########                    Molecular_Weight:             330.387
##########                DOCK_Rotatable_Bonds:                   7
##########                       Formal_Charge:          -0.0300002
##########                     HBond_Acceptors:                   7
##########                        HBond_Donors:                   3
##########                         Heavy_Atoms:                  24
##########                          Grid_Score:          -30.096159
##########                     Grid_vdw_energy:          -30.596083
##########                      Grid_es_energy:            0.499923
##########           Internal_energy_repulsive:           14.513278

@<TRIPOS>MOLECULE
ZINC000350493047
 46 48 1 0 0
SMALL
USER_CHARGES


@<TRIPOS>ATOM
      1 C1         -2.4772    2.0387   46.1355 C.3     1  <0>        -0.1600
      2 C2         -1.7630    1.3405   47.2944 C.3     1  <0>         0.2600
      3 H3         -0.7026    1.5920   47.2720 H       1  <0>         0.1200
      4 N4         -1.9236   -0.1099   47.1642 N.am    1  <0>        -0.7400
      5 C5         -0.9267   -0.9349   47.5408 C.2     1  <0>         0.7100
      6 N6         -1.0751   -2.2692   47.4226 N.am    1  <0>        -0.8600
      7 O7          0.1068   -0.4754   47.9871 O.2     1  <0>        -0.5900
      8 C8         -2.3600    1.7968   48.6007 C.2     1  <0>         0.1700
      9 N9         -1.8690    2.7023   49.3943 N.2     1  <0>        -0.3800
     10 O10        -2.5804    2.8462   50.3661 O.3     1  <0>         0.0900
     11 C11        -3.6322    2.0164   50.2836 C.2     1  <0>         0.2400
     12 C12        -4.7290    1.8824   51.2631 C.ar    1  <0>        -0.0800
     13 C13        -5.5844    0.7793   51.2099 C.ar    1  <0>        -0.0200
     14 C14        -6.6065    0.6578   52.1256 C.ar    1  <0>        -0.2200
     15 C15        -6.7873    1.6309   53.1008 C.ar    1  <0>         0.1700
     16 O16        -7.7961    1.5078   54.0012 O.3     1  <0>        -0.3000
     17 C17        -8.4478    0.2382   54.0758 C.3     1  <0>         0.0800
     18 C18        -8.9641    0.0128   55.4982 C.3     1  <0>        -0.1500
     19 C19        -9.6619   -1.3465   55.5780 C.3     1  <0>        -0.1200
     20 C20       -10.8368   -1.3750   54.5985 C.3     1  <0>        -0.1300
     21 C21       -10.3205   -1.1496   53.1759 C.3     1  <0>        -0.1200
     22 C22        -9.6227    0.2097   53.0961 C.3     1  <0>        -0.1200
     23 C23        -5.9384    2.7294   53.1573 C.ar    1  <0>        -0.1600
     24 C24        -4.9103    2.8552   52.2490 C.ar    1  <0>        -0.0300
     25 N25        -3.4975    1.3462   49.1521 N.2     1  <0>        -0.4700
     26 H26        -3.5376    1.7872   46.1579 H       1  <0>         0.0600
     27 H27        -2.3577    3.1178   46.2323 H       1  <0>         0.0700
     28 H28        -2.0455    1.7086   45.1908 H       1  <0>         0.0800
     29 H29        -2.7477   -0.4764   46.8071 H       1  <0>         0.4000
     30 H30        -0.3579   -2.8629   47.6947 H       1  <0>         0.4000
     31 H31        -1.8991   -2.6359   47.0654 H       1  <0>         0.4200
     32 H32        -5.4449    0.0229   50.4518 H       1  <0>         0.1400
     33 H33        -7.2683   -0.1946   52.0852 H       1  <0>         0.1400
     34 H34        -7.7399   -0.5493   53.8171 H       1  <0>         0.0800
     35 H35        -8.1271    0.0331   56.1961 H       1  <0>         0.0700
     36 H36        -9.6720    0.8003   55.7568 H       1  <0>         0.0800
     37 H37        -8.9540   -2.1340   55.3194 H       1  <0>         0.0600
     38 H38       -10.0298   -1.5071   56.5914 H       1  <0>         0.0700
     39 H39       -11.3340   -2.3434   54.6553 H       1  <0>         0.0700
     40 H40       -11.5447   -0.5875   54.8570 H       1  <0>         0.0700
     41 H41        -9.6125   -1.9370   52.9174 H       1  <0>         0.0700
     42 H42       -11.1575   -1.1698   52.4781 H       1  <0>         0.0700
     43 H43       -10.3306    0.9972   53.3547 H       1  <0>         0.0800
     44 H44        -9.2548    0.3703   52.0827 H       1  <0>         0.0700
     45 H45        -6.0820    3.4834   53.9171 H       1  <0>         0.1400
     46 H46        -4.2506    3.7092   52.2937 H       1  <0>         0.1400
@<TRIPOS>BOND
     1     1     2    1
     2     1    26    1
     3     1    27    1
     4     1    28    1
     5     2     3    1
     6     2     4    1
     7     2     8    1
     8     4     5   am
     9     4    29    1
    10     5     6   am
    11     5     7    2
    12     6    30    1
    13     6    31    1
    14     8    25    1
    15     8     9    2
    16     9    10    1
    17    10    11    1
    18    11    12    1
    19    11    25    2
    20    12    24   ar
    21    12    13   ar
    22    13    14   ar
    23    13    32    1
    24    14    15   ar
    25    14    33    1
    26    15    16    1
    27    15    23   ar
    28    16    17    1
    29    17    22    1
    30    17    18    1
    31    17    34    1
    32    18    19    1
    33    18    35    1
    34    18    36    1
    35    19    20    1
    36    19    37    1
    37    19    38    1
    38    20    21    1
    39    20    39    1
    40    20    40    1
    41    21    22    1
    42    21    41    1
    43    21    42    1
    44    22    43    1
    45    22    44    1
    46    23    24   ar
    47    23    45    1
    48    24    46    1
@<TRIPOS>SUBSTRUCTURE
     1 <0>         1 TEMP              0 ****  ****    0 ROOT


##########                                Name:    ZINC000479580180
##########                DOCK_Rotatable_Bonds:                   5
##########                         Heavy_Atoms:                  30
##########                    Molecular_Weight:             404.444
##########                DOCK_Rotatable_Bonds:                   5
##########                       Formal_Charge:           0.0299995
##########                     HBond_Acceptors:                   7
##########                        HBond_Donors:                   1
##########                         Heavy_Atoms:                  30
##########                          Grid_Score:          -30.091530
##########                     Grid_vdw_energy:          -29.439096
##########                      Grid_es_energy:           -0.652433
##########           Internal_energy_repulsive:           11.058571

@<TRIPOS>MOLECULE
ZINC000479580180
 51 55 1 0 0
SMALL
USER_CHARGES


@<TRIPOS>ATOM
      1 O1         -2.3006    3.4657   49.1764 O.2     1  ZINC000479580180   -0.5200
      2 C2         -1.9558    2.3089   49.0581 C.2     1  ZINC000479580180    0.5200
      3 C3         -1.2319    1.6194   50.1858 C.3     1  ZINC000479580180   -0.0700
      4 C4         -1.0162    2.5942   51.3146 C.2     1  ZINC000479580180   -0.1600
      5 C5          0.1312    3.2022   51.6443 C.2     1  ZINC000479580180    0.0300
      6 O6         -0.0577    4.0035   52.7077 O.3     1  ZINC000479580180   -0.1900
      7 C7         -1.3392    3.9566   53.1233 C.ar    1  ZINC000479580180    0.0800
      8 C8         -2.0336    4.5796   54.1523 C.ar    1  ZINC000479580180   -0.1400
      9 C9         -3.3785    4.3204   54.3280 C.ar    1  ZINC000479580180    0.1300
     10 F10        -4.0518    4.9279   55.3294 F       1  ZINC000479580180   -0.1300
     11 C11        -4.0459    3.4412   53.4847 C.ar    1  ZINC000479580180   -0.1600
     12 C12        -3.3786    2.8183   52.4664 C.ar    1  ZINC000479580180   -0.0400
     13 C13        -2.0226    3.0734   52.2702 C.ar    1  ZINC000479580180   -0.1200
     14 N14        -2.2250    1.6383   47.9204 N.am    1  ZINC000479580180   -0.6200
     15 C15        -2.9248    2.2986   46.8100 C.3     1  ZINC000479580180    0.1100
     16 C16        -2.0917    2.1341   45.5350 C.3     1  ZINC000479580180   -0.1300
     17 C17        -1.8076    0.6481   45.3040 C.3     1  ZINC000479580180   -0.0100
     18 C18        -1.0172    0.4799   44.0320 C.2     1  ZINC000479580180    0.3000
     19 N19         0.2608    0.7118   43.8887 N.2     1  ZINC000479580180   -0.5300
     20 C20         0.6290    0.4571   42.6259 C.2     1  ZINC000479580180    0.2700
     21 C21         2.0010    0.6020   42.0789 C.ar    1  ZINC000479580180   -0.0200
     22 C22         2.2548    0.3077   40.7409 C.ar    1  ZINC000479580180   -0.0800
     23 C23         3.5325    0.4446   40.2373 C.ar    1  ZINC000479580180   -0.1300
     24 C24         4.5601    0.8727   41.0582 C.ar    1  ZINC000479580180   -0.1000
     25 C25         4.3136    1.1663   42.3873 C.ar    1  ZINC000479580180   -0.1200
     26 C26         3.0386    1.0384   42.9000 C.ar    1  ZINC000479580180   -0.0800
     27 N27        -0.4265    0.0568   41.9517 N.2     1  ZINC000479580180   -0.3000
     28 N28        -1.5052    0.0599   42.8510 N.pl3   1  ZINC000479580180   -0.4800
     29 C29        -1.0035    0.0919   46.4814 C.3     1  ZINC000479580180   -0.1400
     30 C30        -1.8190    0.2349   47.7648 C.3     1  ZINC000479580180    0.1200
     31 H31        -1.8285    0.7790   50.5406 H       1  ZINC000479580180    0.1100
     32 H32        -0.2677    1.2561   49.8303 H       1  ZINC000479580180    0.1100
     33 H33         1.0717    3.0681   51.1305 H       1  ZINC000479580180    0.2100
     34 H34        -1.5230    5.2644   54.8132 H       1  ZINC000479580180    0.1500
     35 H35        -5.0980    3.2482   53.6343 H       1  ZINC000479580180    0.1400
     36 H36        -3.9016    2.1350   51.8137 H       1  ZINC000479580180    0.1300
     37 H37        -3.9028    1.8385   46.6693 H       1  ZINC000479580180    0.0800
     38 H38        -3.0460    3.3585   47.0331 H       1  ZINC000479580180    0.0900
     39 H39        -2.6442    2.5353   44.6852 H       1  ZINC000479580180    0.0900
     40 H40        -1.1499    2.6720   45.6438 H       1  ZINC000479580180    0.0700
     41 H41        -2.7501    0.1070   45.2201 H       1  ZINC000479580180    0.1200
     42 H42         1.4534   -0.0274   40.0992 H       1  ZINC000479580180    0.1400
     43 H43         3.7305    0.2167   39.2003 H       1  ZINC000479580180    0.1300
     44 H44         5.5586    0.9779   40.6602 H       1  ZINC000479580180    0.1300
     45 H45         5.1197    1.4998   43.0241 H       1  ZINC000479580180    0.1300
     46 H46         2.8472    1.2681   43.9378 H       1  ZINC000479580180    0.1300
     47 H47        -2.4231   -0.1867   42.6570 H       1  ZINC000479580180    0.4400
     48 H48        -0.7815   -0.9606   46.3052 H       1  ZINC000479580180    0.0900
     49 H49        -0.0720    0.6489   46.5813 H       1  ZINC000479580180    0.0700
     50 H50        -1.2127   -0.0683   48.6185 H       1  ZINC000479580180    0.1000
     51 H51        -2.7084   -0.3923   47.7045 H       1  ZINC000479580180    0.0800
@<TRIPOS>BOND
     1     1     2    2
     2     2     3    1
     3     2    14   am
     4     3     4    1
     5     3    31    1
     6     3    32    1
     7     4    13    1
     8     4     5    2
     9     5     6    1
    10     5    33    1
    11     6     7    1
    12     7    13   ar
    13     7     8   ar
    14     8     9   ar
    15     8    34    1
    16     9    10    1
    17     9    11   ar
    18    11    12   ar
    19    11    35    1
    20    12    13   ar
    21    12    36    1
    22    14    30    1
    23    14    15    1
    24    15    16    1
    25    15    37    1
    26    15    38    1
    27    16    17    1
    28    16    39    1
    29    16    40    1
    30    17    18    1
    31    17    29    1
    32    17    41    1
    33    18    28    1
    34    18    19    2
    35    19    20    1
    36    20    21    1
    37    20    27    2
    38    21    26   ar
    39    21    22   ar
    40    22    23   ar
    41    22    42    1
    42    23    24   ar
    43    23    43    1
    44    24    25   ar
    45    24    44    1
    46    25    26   ar
    47    25    45    1
    48    26    46    1
    49    27    28    1
    50    28    47    1
    51    29    30    1
    52    29    48    1
    53    29    49    1
    54    30    50    1
    55    30    51    1
@<TRIPOS>SUBSTRUCTURE
     1 ZINC000479580180        1 TEMP              0 ****  ****    0 ROOT


##########                                Name:    ZINC000007167963
##########                DOCK_Rotatable_Bonds:                   8
##########                         Heavy_Atoms:                  25
##########                    Molecular_Weight:             378.433
##########                DOCK_Rotatable_Bonds:                   8
##########                       Formal_Charge:        -1.01328e-06
##########                     HBond_Acceptors:                  10
##########                        HBond_Donors:                   3
##########                         Heavy_Atoms:                  25
##########                          Grid_Score:          -30.089670
##########                     Grid_vdw_energy:          -31.626602
##########                      Grid_es_energy:            1.536932
##########           Internal_energy_repulsive:            7.873584

@<TRIPOS>MOLECULE
ZINC000007167963
 39 41 1 0 0
SMALL
USER_CHARGES


@<TRIPOS>ATOM
      1 C1          1.7182    1.4004   44.7290 C.3     1  ZINC000007167963   -0.0800
      2 C2          0.4639    0.9576   44.0205 C.2     1  ZINC000007167963    0.0900
      3 C3         -0.7760    0.8734   44.5751 C.2     1  ZINC000007167963   -0.1500
      4 C4         -1.1544    1.1926   45.9677 C.2     1  ZINC000007167963    0.2600
      5 N5         -0.4081    1.0262   47.0323 N.2     1  ZINC000007167963   -0.2700
      6 N6         -1.0573    1.4109   48.0742 N.2     1  ZINC000007167963   -0.2800
      7 C7         -2.2444    1.8384   47.7164 C.2     1  ZINC000007167963    0.1200
      8 S8         -3.4937    2.4660   48.7888 S.3     1  ZINC000007167963    0.1500
      9 C9         -2.7545    2.0762   50.3944 C.3     1  ZINC000007167963   -0.1200
     10 H10        -2.2654    1.1035   50.3427 H       1  ZINC000007167963    0.1400
     11 C11        -1.7228    3.1472   50.7543 C.3     1  ZINC000007167963   -0.1500
     12 C12        -3.8313    2.0417   51.4481 C.2     1  ZINC000007167963    0.5300
     13 O13        -3.5801    2.3871   52.5833 O.2     1  ZINC000007167963   -0.4900
     14 N14        -5.0734    1.6272   51.1290 N.am    1  ZINC000007167963   -0.6100
     15 C15        -6.0645    1.5971   52.0982 C.2     1  ZINC000007167963    0.0800
     16 C16        -6.7291    0.4669   52.4985 C.2     1  ZINC000007167963   -0.2400
     17 C17        -6.4703   -0.8656   51.9443 C.2     1  ZINC000007167963    0.5900
     18 N18        -7.3516   -1.4233   51.0907 N.am    1  ZINC000007167963   -0.8400
     19 O19        -5.4596   -1.4682   52.2552 O.2     1  ZINC000007167963   -0.5600
     20 C20        -7.7121    0.7290   53.5267 C.2     1  ZINC000007167963   -0.0900
     21 C21        -7.7739    2.0063   53.8753 C.2     1  ZINC000007167963   -0.2800
     22 S22        -6.6188    2.9588   52.9604 S.3     1  ZINC000007167963    0.3000
     23 O23        -2.3313    1.7151   46.3773 O.3     1  ZINC000007167963   -0.2000
     24 C24        -1.6602    0.4002   43.5020 C.2     1  ZINC000007167963   -0.1800
     25 C25        -0.8801    0.2468   42.4196 C.2     1  ZINC000007167963   -0.0300
     26 O26         0.3791    0.5853   42.7353 O.3     1  ZINC000007167963   -0.1700
     27 H27         2.5573    1.3727   44.0338 H       1  ZINC000007167963    0.0800
     28 H28         1.5867    2.4171   45.0993 H       1  ZINC000007167963    0.1000
     29 H29         1.9178    0.7317   45.5664 H       1  ZINC000007167963    0.1000
     30 H30        -0.9439    3.1722   49.9922 H       1  ZINC000007167963    0.0900
     31 H31        -2.2118    4.1200   50.8060 H       1  ZINC000007167963    0.0800
     32 H32        -1.2776    2.9125   51.7211 H       1  ZINC000007167963    0.0800
     33 H33        -5.2738    1.3499   50.2214 H       1  ZINC000007167963    0.4400
     34 H34        -7.1808   -2.3054   50.7250 H       1  ZINC000007167963    0.4000
     35 H35        -8.1566   -0.9427   50.8419 H       1  ZINC000007167963    0.4100
     36 H36        -8.3332   -0.0379   53.9652 H       1  ZINC000007167963    0.1500
     37 H37        -8.4420    2.4060   54.6239 H       1  ZINC000007167963    0.1700
     38 H38        -2.7217    0.2130   43.5699 H       1  ZINC000007167963    0.1600
     39 H39        -1.2139   -0.0907   41.4495 H       1  ZINC000007167963    0.2200
@<TRIPOS>BOND
     1     1     2    1
     2     1    27    1
     3     1    28    1
     4     1    29    1
     5     2    26    1
     6     2     3    2
     7     3     4    1
     8     3    24    1
     9     4    23    1
    10     4     5    2
    11     5     6    1
    12     6     7    2
    13     7     8    1
    14     7    23    1
    15     8     9    1
    16     9    10    1
    17     9    11    1
    18     9    12    1
    19    11    30    1
    20    11    31    1
    21    11    32    1
    22    12    13    2
    23    12    14   am
    24    14    15    1
    25    14    33    1
    26    15    22    1
    27    15    16    2
    28    16    17    1
    29    16    20    1
    30    17    18   am
    31    17    19    2
    32    18    34    1
    33    18    35    1
    34    20    21    2
    35    20    36    1
    36    21    22    1
    37    21    37    1
    38    24    25    2
    39    24    38    1
    40    25    26    1
    41    25    39    1
@<TRIPOS>SUBSTRUCTURE
     1 ZINC000007167963        1 TEMP              0 ****  ****    0 ROOT


##########                                Name:    ZINC000676204775
##########                DOCK_Rotatable_Bonds:                   4
##########                         Heavy_Atoms:                  25
##########                    Molecular_Weight:             359.452
##########                DOCK_Rotatable_Bonds:                   4
##########                       Formal_Charge:          0.00999978
##########                     HBond_Acceptors:                   8
##########                        HBond_Donors:                   2
##########                         Heavy_Atoms:                  25
##########                          Grid_Score:          -30.073776
##########                     Grid_vdw_energy:          -28.771929
##########                      Grid_es_energy:           -1.301848
##########           Internal_energy_repulsive:            8.102570

@<TRIPOS>MOLECULE
ZINC000676204775
 46 49 1 0 0
SMALL
USER_CHARGES


@<TRIPOS>ATOM
      1 C1          0.2073   -1.6002   48.7230 C.3     1  ZINC000676204775   -0.1600
      2 C2          0.5305   -0.2121   48.1663 C.3     1  ZINC000676204775    0.1600
      3 C3          1.1691   -0.3535   46.7832 C.3     1  ZINC000676204775   -0.1600
      4 N4         -0.7036    0.5695   48.0568 N.pl3   1  ZINC000676204775   -0.3900
      5 N5         -1.5062    0.6634   46.9150 N.2     1  ZINC000676204775   -0.2500
      6 C6         -2.5284    1.4358   47.1488 C.2     1  ZINC000676204775    0.0900
      7 C7         -2.4283    1.9026   48.5278 C.ar    1  ZINC000676204775   -0.2100
      8 C8         -3.2125    2.7373   49.3314 C.ar    1  ZINC000676204775    0.0800
      9 C9         -2.8343    2.9837   50.6196 C.ar    1  ZINC000676204775   -0.7200
     10 S10        -3.8212    4.0343   51.6330 S.o2    1  ZINC000676204775    2.6900
     11 O11        -3.2798    3.9512   52.9441 O.2     1  ZINC000676204775   -0.9300
     12 O12        -3.9603    5.2589   50.9257 O.2     1  ZINC000676204775   -0.9600
     13 N13        -5.3334    3.3634   51.7080 N.am    1  ZINC000676204775   -1.1100
     14 C14        -5.5107    2.0161   52.2554 C.3     1  ZINC000676204775    0.2400
     15 H15        -4.7606    1.8299   53.0241 H       1  ZINC000676204775    0.1000
     16 C16        -5.3704    0.9794   51.1338 C.3     1  ZINC000676204775   -0.1200
     17 C17        -5.7899   -0.3992   51.6488 C.3     1  ZINC000676204775   -0.1200
     18 C18        -7.3114   -0.4397   51.8393 C.3     1  ZINC000676204775   -0.0400
     19 C19        -7.7160    0.7636   52.6548 C.2     1  ZINC000676204775   -0.2300
     20 C20        -8.8714    0.9767   53.3112 C.2     1  ZINC000676204775    0.0600
     21 N21        -8.7877    2.1888   53.9041 N.pl3   1  ZINC000676204775   -0.4800
     22 N22        -7.5328    2.7360   53.5964 N.2     1  ZINC000676204775   -0.2400
     23 C23        -6.8922    1.8855   52.8496 C.2     1  ZINC000676204775    0.0500
     24 C24        -1.6788    2.4139   51.1394 C.ar    1  ZINC000676204775    0.0100
     25 C25        -0.8967    1.5955   50.3743 C.ar    1  ZINC000676204775   -0.1500
     26 C26        -1.2601    1.3214   49.0584 C.ar    1  ZINC000676204775    0.1700
     27 H27        -0.2477   -1.4995   49.7084 H       1  ZINC000676204775    0.0600
     28 H28        -0.4861   -2.1080   48.0527 H       1  ZINC000676204775    0.0700
     29 H29         1.1255   -2.1818   48.8045 H       1  ZINC000676204775    0.0800
     30 H30         1.2240    0.2957   48.8366 H       1  ZINC000676204775    0.1000
     31 H31         0.4756   -0.8613   46.1129 H       1  ZINC000676204775    0.0700
     32 H32         1.3994    0.6353   46.3866 H       1  ZINC000676204775    0.0600
     33 H33         2.0874   -0.9352   46.8647 H       1  ZINC000676204775    0.0800
     34 H34        -3.3104    1.6863   46.4473 H       1  ZINC000676204775    0.2000
     35 H35        -4.1119    3.1843   48.9346 H       1  ZINC000676204775    0.1500
     36 H36        -6.1018    3.8625   51.3895 H       1  ZINC000676204775    0.4200
     37 H37        -6.0078    1.2629   50.2964 H       1  ZINC000676204775    0.0800
     38 H38        -4.3328    0.9421   50.8022 H       1  ZINC000676204775    0.0800
     39 H39        -5.4946   -1.1610   50.9273 H       1  ZINC000676204775    0.0700
     40 H40        -5.2997   -0.5947   52.6025 H       1  ZINC000676204775    0.0700
     41 H41        -7.8046   -0.4083   50.8679 H       1  ZINC000676204775    0.0700
     42 H42        -7.5919   -1.3519   52.3658 H       1  ZINC000676204775    0.0700
     43 H43        -9.7131    0.3015   53.3562 H       1  ZINC000676204775    0.1800
     44 H44        -9.4745    2.6067   54.4468 H       1  ZINC000676204775    0.4400
     45 H45        -1.3952    2.6207   52.1608 H       1  ZINC000676204775    0.1500
     46 H46        -0.0009    1.1590   50.7907 H       1  ZINC000676204775    0.1300
@<TRIPOS>BOND
     1     1     2    1
     2     1    27    1
     3     1    28    1
     4     1    29    1
     5     2     3    1
     6     2     4    1
     7     2    30    1
     8     3    31    1
     9     3    32    1
    10     3    33    1
    11     4    26    1
    12     4     5    1
    13     5     6    2
    14     6     7    1
    15     6    34    1
    16     7    26   ar
    17     7     8   ar
    18     8     9   ar
    19     8    35    1
    20     9    10    1
    21     9    24   ar
    22    10    11    2
    23    10    12    2
    24    10    13   am
    25    13    14    1
    26    13    36    1
    27    14    15    1
    28    14    23    1
    29    14    16    1
    30    16    17    1
    31    16    37    1
    32    16    38    1
    33    17    18    1
    34    17    39    1
    35    17    40    1
    36    18    19    1
    37    18    41    1
    38    18    42    1
    39    19    23    1
    40    19    20    2
    41    20    21    1
    42    20    43    1
    43    21    22    1
    44    21    44    1
    45    22    23    2
    46    24    25   ar
    47    24    45    1
    48    25    26   ar
    49    25    46    1
@<TRIPOS>SUBSTRUCTURE
     1 ZINC000676204775        1 TEMP              0 ****  ****    0 ROOT


##########                                Name:    ZINC001087843226
##########                DOCK_Rotatable_Bonds:                   6
##########                         Heavy_Atoms:                  27
##########                    Molecular_Weight:             368.479
##########                DOCK_Rotatable_Bonds:                   6
##########                       Formal_Charge:        -4.47035e-07
##########                     HBond_Acceptors:                   6
##########                        HBond_Donors:                   1
##########                         Heavy_Atoms:                  27
##########                          Grid_Score:          -30.001987
##########                     Grid_vdw_energy:          -30.525583
##########                      Grid_es_energy:            0.523597
##########           Internal_energy_repulsive:           27.481121

@<TRIPOS>MOLECULE
ZINC001087843226
 55 58 1 0 0
SMALL
USER_CHARGES


@<TRIPOS>ATOM
      1 C1         -8.8534   -0.0178   58.5854 C.3     1  ZINC001087843226   -0.1500
      2 C2        -10.1507   -0.8249   58.5057 C.3     1  ZINC001087843226   -0.1500
      3 C3        -10.3270   -1.3684   57.0864 C.3     1  ZINC001087843226    0.0700
      4 H4         -9.4443   -1.9378   56.7953 H       1  ZINC001087843226    0.1000
      5 C5        -10.5475   -0.2014   56.1010 C.3     1  ZINC001087843226    0.1300
      6 H6        -10.9345    0.6746   56.6215 H       1  ZINC001087843226    0.1000
      7 N7         -9.3047    0.1239   55.3969 N.am    1  ZINC001087843226   -0.7200
      8 C8         -9.1591    1.3272   54.8075 C.2     1  ZINC001087843226    0.5600
      9 O9        -10.0596    2.1420   54.8590 O.2     1  ZINC001087843226   -0.5300
     10 C10        -7.9042    1.6561   54.0984 C.ar    1  ZINC001087843226   -0.1400
     11 C11        -7.1866    2.8008   54.4439 C.ar    1  ZINC001087843226   -0.0800
     12 C12        -6.0161    3.1023   53.7785 C.ar    1  ZINC001087843226   -0.1300
     13 C13        -5.5568    2.2722   52.7733 C.ar    1  ZINC001087843226   -0.0400
     14 C14        -4.2772    2.6092   52.0519 C.3     1  ZINC001087843226   -0.1200
     15 C15        -6.2637    1.1318   52.4236 C.ar    1  ZINC001087843226   -0.1100
     16 C16        -7.4325    0.8167   53.0846 C.ar    1  ZINC001087843226   -0.0300
     17 C17        -8.0111   -0.4640   52.5228 C.3     1  ZINC001087843226   -0.0800
     18 C18        -7.3082   -0.6618   51.1628 C.3     1  ZINC001087843226   -0.1200
     19 C19        -5.9701    0.0813   51.3734 C.3     1  ZINC001087843226   -0.0800
     20 C20       -11.6065   -0.7684   55.1192 C.3     1  ZINC001087843226   -0.1400
     21 C21       -12.4800   -1.6303   56.0646 C.3     1  ZINC001087843226    0.0400
     22 N22       -11.5224   -2.2292   57.0238 N.3     1  ZINC001087843226   -0.5100
     23 C23       -12.1323   -2.3805   58.3516 C.3     1  ZINC001087843226    0.1100
     24 C24       -13.3578   -3.2510   58.2453 C.2     1  ZINC001087843226    0.0800
     25 N25       -13.5427   -4.1825   57.3582 N.2     1  ZINC001087843226   -0.2700
     26 O26       -14.8157   -4.7580   57.6058 O.3     1  ZINC001087843226    0.0300
     27 N27       -15.3549   -4.0709   58.7240 N.2     1  ZINC001087843226   -0.2800
     28 C28       -14.4791   -3.1859   59.0960 C.2     1  ZINC001087843226    0.0900
     29 C29       -14.6420   -2.2314   60.2508 C.3     1  ZINC001087843226   -0.0900
     30 H30        -8.7621    0.4263   59.5766 H       1  ZINC001087843226    0.0600
     31 H31        -8.0041   -0.6763   58.4027 H       1  ZINC001087843226    0.0600
     32 H32        -8.8696    0.7713   57.8337 H       1  ZINC001087843226    0.0600
     33 H33       -10.1057   -1.6557   59.2099 H       1  ZINC001087843226    0.0800
     34 H34       -10.9946   -0.1819   58.7559 H       1  ZINC001087843226    0.0700
     35 H35        -8.5865   -0.5269   55.3548 H       1  ZINC001087843226    0.4000
     36 H36        -7.5459    3.4493   55.2292 H       1  ZINC001087843226    0.1300
     37 H37        -5.4582    3.9883   54.0432 H       1  ZINC001087843226    0.1300
     38 H38        -3.4362    2.1479   52.5695 H       1  ZINC001087843226    0.0800
     39 H39        -4.3261    2.2325   51.0303 H       1  ZINC001087843226    0.0700
     40 H40        -4.1440    3.6908   52.0345 H       1  ZINC001087843226    0.0700
     41 H41        -7.7930   -1.3007   53.1865 H       1  ZINC001087843226    0.0800
     42 H42        -9.0871   -0.3629   52.3813 H       1  ZINC001087843226    0.0900
     43 H43        -7.1348   -1.7198   50.9664 H       1  ZINC001087843226    0.0800
     44 H44        -7.8857   -0.2066   50.3583 H       1  ZINC001087843226    0.0700
     45 H45        -5.6519    0.5574   50.4460 H       1  ZINC001087843226    0.0800
     46 H46        -5.2051   -0.6100   51.7265 H       1  ZINC001087843226    0.0800
     47 H47       -12.1918    0.0340   54.6701 H       1  ZINC001087843226    0.0800
     48 H48       -11.1373   -1.3839   54.3517 H       1  ZINC001087843226    0.0800
     49 H49       -13.2028   -1.0048   56.5886 H       1  ZINC001087843226    0.0600
     50 H50       -12.9905   -2.4119   55.5021 H       1  ZINC001087843226    0.0800
     51 H51       -11.4156   -2.8432   59.0301 H       1  ZINC001087843226    0.1200
     52 H52       -12.4151   -1.4002   58.7352 H       1  ZINC001087843226    0.0700
     53 H53       -14.1686   -2.6510   61.1385 H       1  ZINC001087843226    0.1000
     54 H54       -14.1721   -1.2793   60.0041 H       1  ZINC001087843226    0.0900
     55 H55       -15.7028   -2.0737   60.4449 H       1  ZINC001087843226    0.0900
@<TRIPOS>BOND
     1     1     2    1
     2     1    30    1
     3     1    31    1
     4     1    32    1
     5     2     3    1
     6     2    33    1
     7     2    34    1
     8     3     4    1
     9     3    22    1
    10     3     5    1
    11     5     6    1
    12     5     7    1
    13     5    20    1
    14     7     8   am
    15     7    35    1
    16     8     9    2
    17     8    10    1
    18    10    16   ar
    19    10    11   ar
    20    11    12   ar
    21    11    36    1
    22    12    13   ar
    23    12    37    1
    24    13    14    1
    25    13    15   ar
    26    14    38    1
    27    14    39    1
    28    14    40    1
    29    15    19    1
    30    15    16   ar
    31    16    17    1
    32    17    18    1
    33    17    41    1
    34    17    42    1
    35    18    19    1
    36    18    43    1
    37    18    44    1
    38    19    45    1
    39    19    46    1
    40    20    21    1
    41    20    47    1
    42    20    48    1
    43    21    22    1
    44    21    49    1
    45    21    50    1
    46    22    23    1
    47    23    24    1
    48    23    51    1
    49    23    52    1
    50    24    28    1
    51    24    25    2
    52    25    26    1
    53    26    27    1
    54    27    28    2
    55    28    29    1
    56    29    53    1
    57    29    54    1
    58    29    55    1
@<TRIPOS>SUBSTRUCTURE
     1 ZINC001087843226        1 TEMP              0 ****  ****    0 ROOT


##########                                Name:    ZINC001327099466
##########                DOCK_Rotatable_Bonds:                   7
##########                         Heavy_Atoms:                  27
##########                    Molecular_Weight:             374.483
##########                DOCK_Rotatable_Bonds:                   7
##########                       Formal_Charge:           0.0199998
##########                     HBond_Acceptors:                   7
##########                        HBond_Donors:                   1
##########                         Heavy_Atoms:                  27
##########                          Grid_Score:          -29.985271
##########                     Grid_vdw_energy:          -30.604231
##########                      Grid_es_energy:            0.618960
##########           Internal_energy_repulsive:           16.234859

@<TRIPOS>MOLECULE
ZINC001327099466
 57 60 1 0 0
SMALL
USER_CHARGES


@<TRIPOS>ATOM
      1 O1         -5.4335   -0.8746   52.1079 O.2     1  ZINC001327099466   -0.4800
      2 C2         -6.3917   -0.1294   52.1108 C.2     1  ZINC001327099466    0.5300
      3 N3         -6.2400    1.1649   51.7667 N.am    1  ZINC001327099466   -0.6000
      4 C4         -4.9768    1.6509   51.4117 C.2     1  ZINC001327099466    0.2900
      5 N5         -4.2015    1.1677   50.4691 N.2     1  ZINC001327099466   -0.3100
      6 N6         -3.0298    1.9345   50.4316 N.pl3   1  ZINC001327099466   -0.3500
      7 C7         -1.8986    1.7335   49.5226 C.3     1  ZINC001327099466    0.1700
      8 C8         -2.3972    1.1069   48.2189 C.3     1  ZINC001327099466   -0.1300
      9 C9         -1.2157    0.8971   47.2695 C.3     1  ZINC001327099466   -0.1200
     10 C10        -0.5576    2.2450   46.9685 C.3     1  ZINC001327099466   -0.1300
     11 C11        -0.0593    2.8717   48.2723 C.3     1  ZINC001327099466   -0.1200
     12 C12        -1.2406    3.0816   49.2216 C.3     1  ZINC001327099466   -0.1300
     13 C13        -3.1256    2.8913   51.3789 C.2     1  ZINC001327099466    0.0700
     14 C14        -4.3190    2.7450   51.9975 C.2     1  ZINC001327099466   -0.2700
     15 C15        -7.7399   -0.6482   52.4897 C.2     1  ZINC001327099466    0.5100
     16 O16        -8.2429   -1.5519   51.8547 O.2     1  ZINC001327099466   -0.5100
     17 N17        -8.3982   -0.1126   53.5367 N.am    1  ZINC001327099466   -0.5700
     18 C18        -7.8024    0.9820   54.3149 C.3     1  ZINC001327099466    0.0400
     19 C19        -7.7982    0.5890   55.7956 C.3     1  ZINC001327099466   -0.1300
     20 C20        -9.2189    0.2141   56.2238 C.3     1  ZINC001327099466   -0.1200
     21 C21        -9.6996   -0.9871   55.4065 C.3     1  ZINC001327099466    0.0800
     22 H22        -9.0200   -1.8257   55.5581 H       1  ZINC001327099466    0.0700
     23 O23       -11.0140   -1.3561   55.8287 O.3     1  ZINC001327099466   -0.3500
     24 C24       -11.0391   -2.1898   56.9891 C.3     1  ZINC001327099466    0.0600
     25 C25       -12.1090   -1.7836   58.0163 C.3     1  ZINC001327099466   -0.1600
     26 C26       -13.0739   -2.7136   57.2618 C.3     1  ZINC001327099466   -0.1400
     27 C27       -11.8330   -3.4924   56.7946 C.3     1  ZINC001327099466   -0.1400
     28 C28        -9.7278   -0.6082   53.9180 C.3     1  ZINC001327099466    0.0900
     29 H29        -7.0064    1.7593   51.7652 H       1  ZINC001327099466    0.4300
     30 H30        -1.1707    1.0700   49.9895 H       1  ZINC001327099466    0.1000
     31 H31        -2.8659    0.1465   48.4333 H       1  ZINC001327099466    0.0700
     32 H32        -3.1250    1.7704   47.7519 H       1  ZINC001327099466    0.0700
     33 H33        -0.4879    0.2336   47.7365 H       1  ZINC001327099466    0.0700
     34 H34        -1.5709    0.4506   46.3407 H       1  ZINC001327099466    0.0700
     35 H35         0.2840    2.0956   46.2923 H       1  ZINC001327099466    0.0700
     36 H36        -1.2856    2.9086   46.5016 H       1  ZINC001327099466    0.0700
     37 H37         0.6687    2.2082   48.7393 H       1  ZINC001327099466    0.0700
     38 H38         0.4097    3.8321   48.0578 H       1  ZINC001327099466    0.0700
     39 H39        -1.9685    3.7450   48.7547 H       1  ZINC001327099466    0.0700
     40 H40        -0.8855    3.5280   50.1504 H       1  ZINC001327099466    0.0700
     41 H41        -2.3824    3.6428   51.6008 H       1  ZINC001327099466    0.1800
     42 H42        -4.6970    3.3573   52.8029 H       1  ZINC001327099466    0.1700
     43 H43        -6.7797    1.1542   53.9797 H       1  ZINC001327099466    0.1600
     44 H44        -8.3912    1.8893   54.1794 H       1  ZINC001327099466    0.0700
     45 H45        -7.1365   -0.2644   55.9436 H       1  ZINC001327099466    0.0700
     46 H46        -7.4478    1.4298   56.3941 H       1  ZINC001327099466    0.0900
     47 H47        -9.2231   -0.0423   57.2832 H       1  ZINC001327099466    0.0800
     48 H48        -9.8849    1.0598   56.0524 H       1  ZINC001327099466    0.0800
     49 H49       -10.0507   -2.3414   57.4228 H       1  ZINC001327099466    0.0700
     50 H50       -11.8879   -2.1143   59.0310 H       1  ZINC001327099466    0.0900
     51 H51       -12.3871   -0.7310   57.9642 H       1  ZINC001327099466    0.0700
     52 H52       -13.7287   -3.2879   57.9171 H       1  ZINC001327099466    0.0700
     53 H53       -13.6110   -2.2209   56.4513 H       1  ZINC001327099466    0.0800
     54 H54       -11.8881   -3.8193   55.7561 H       1  ZINC001327099466    0.0800
     55 H55       -11.5363   -4.2903   57.4753 H       1  ZINC001327099466    0.0900
     56 H56       -10.4744    0.1685   53.7528 H       1  ZINC001327099466    0.0900
     57 H57        -9.9737   -1.4870   53.3218 H       1  ZINC001327099466    0.1000
@<TRIPOS>BOND
     1     1     2    2
     2     2     3   am
     3     2    15    1
     4     3     4    1
     5     3    29    1
     6     4    14    1
     7     4     5    2
     8     5     6    1
     9     6     7    1
    10     6    13    1
    11     7    12    1
    12     7     8    1
    13     7    30    1
    14     8     9    1
    15     8    31    1
    16     8    32    1
    17     9    10    1
    18     9    33    1
    19     9    34    1
    20    10    11    1
    21    10    35    1
    22    10    36    1
    23    11    12    1
    24    11    37    1
    25    11    38    1
    26    12    39    1
    27    12    40    1
    28    13    14    2
    29    13    41    1
    30    14    42    1
    31    15    16    2
    32    15    17   am
    33    17    28    1
    34    17    18    1
    35    18    19    1
    36    18    43    1
    37    18    44    1
    38    19    20    1
    39    19    45    1
    40    19    46    1
    41    20    21    1
    42    20    47    1
    43    20    48    1
    44    21    22    1
    45    21    23    1
    46    21    28    1
    47    23    24    1
    48    24    27    1
    49    24    25    1
    50    24    49    1
    51    25    26    1
    52    25    50    1
    53    25    51    1
    54    26    27    1
    55    26    52    1
    56    26    53    1
    57    27    54    1
    58    27    55    1
    59    28    56    1
    60    28    57    1
@<TRIPOS>SUBSTRUCTURE
     1 ZINC001327099466        1 TEMP              0 ****  ****    0 ROOT


##########                                Name:    ZINC000563265674
##########                DOCK_Rotatable_Bonds:                   7
##########                         Heavy_Atoms:                  25
##########                    Molecular_Weight:             386.859
##########                DOCK_Rotatable_Bonds:                   7
##########                       Formal_Charge:          0.00999963
##########                     HBond_Acceptors:                  10
##########                        HBond_Donors:                   2
##########                         Heavy_Atoms:                  25
##########                          Grid_Score:          -29.982658
##########                     Grid_vdw_energy:          -28.428732
##########                      Grid_es_energy:           -1.553927
##########           Internal_energy_repulsive:           11.482041

@<TRIPOS>MOLECULE
ZINC000563265674
 44 45 1 0 0
SMALL
USER_CHARGES


@<TRIPOS>ATOM
      1 C1         -8.1886   -0.0102   65.1236 C.3     1  ZINC000563265674   -0.0600
      2 C2         -9.0708    0.0188   63.9022 C.2     1  ZINC000563265674    0.1700
      3 N3        -10.1123    0.7750   63.7237 N.2     1  ZINC000563265674   -0.3800
      4 O4        -10.6053    0.5608   62.6363 O.3     1  ZINC000563265674    0.0900
      5 C5         -9.9036   -0.3811   61.9985 C.2     1  ZINC000563265674    0.1900
      6 C6        -10.1844   -0.9336   60.6248 C.3     1  ZINC000563265674    0.2100
      7 C7         -9.1306   -1.9856   60.2732 C.3     1  ZINC000563265674   -0.1400
      8 C8        -11.5726   -1.5765   60.6076 C.3     1  ZINC000563265674   -0.1800
      9 N9        -10.1368    0.1553   59.6400 N.3     1  ZINC000563265674   -0.6600
     10 C10        -8.8840    0.9140   59.7542 C.3     1  ZINC000563265674    0.0400
     11 C11        -8.1940    0.9488   58.4149 C.2     1  ZINC000563265674    0.5200
     12 O12        -7.2199    0.2539   58.2163 O.2     1  ZINC000563265674   -0.4900
     13 N13        -8.6592    1.7522   57.4379 N.am    1  ZINC000563265674   -0.6700
     14 C14        -8.0182    1.7845   56.1938 C.ar    1  ZINC000563265674    0.1400
     15 C15        -8.3748    0.8791   55.2039 C.ar    1  ZINC000563265674   -0.0300
     16 C16        -7.7407    0.9137   53.9769 C.ar    1  ZINC000563265674   -0.6400
     17 S17        -8.1933   -0.2351   52.7199 S.o2    1  ZINC000563265674    2.5000
     18 C18        -6.6185   -0.7178   51.9597 C.3     1  ZINC000563265674   -0.6500
     19 O19        -8.7594   -1.3275   53.4309 O.2     1  ZINC000563265674   -0.9300
     20 O20        -8.9723    0.5296   51.8103 O.2     1  ZINC000563265674   -0.9300
     21 C21        -6.7518    1.8489   53.7338 C.ar    1  ZINC000563265674   -0.0300
     22 C22        -6.3933    2.7525   54.7175 C.ar    1  ZINC000563265674   -0.1100
     23 C23        -7.0274    2.7270   55.9450 C.ar    1  ZINC000563265674   -0.0200
     24 Cl24       -6.5776    3.8618   57.1794 Cl      1  ZINC000563265674   -0.0500
     25 N25        -8.9214   -0.7291   62.7944 N.2     1  ZINC000563265674   -0.4700
     26 H26        -7.3810    0.7124   65.0058 H       1  ZINC000563265674    0.0900
     27 H27        -8.7785    0.2446   66.0041 H       1  ZINC000563265674    0.0900
     28 H28        -7.7680   -1.0086   65.2445 H       1  ZINC000563265674    0.0900
     29 H29        -9.1659   -2.7936   61.0039 H       1  ZINC000563265674    0.0800
     30 H30        -9.3337   -2.3853   59.2796 H       1  ZINC000563265674    0.0800
     31 H31        -8.1417   -1.5276   60.2854 H       1  ZINC000563265674    0.0700
     32 H32       -12.3233   -0.8271   60.8581 H       1  ZINC000563265674    0.0700
     33 H33       -11.7756   -1.9762   59.6141 H       1  ZINC000563265674    0.0800
     34 H34       -11.6079   -2.3845   61.3384 H       1  ZINC000563265674    0.0800
     35 H35       -10.2610   -0.1986   58.7032 H       1  ZINC000563265674    0.3600
     36 H36        -9.1038    1.9319   60.0762 H       1  ZINC000563265674    0.1200
     37 H37        -8.2339    0.4339   60.4855 H       1  ZINC000563265674    0.0800
     38 H38        -9.4382    2.3078   57.5966 H       1  ZINC000563265674    0.4200
     39 H39        -9.1468    0.1479   55.3928 H       1  ZINC000563265674    0.1700
     40 H40        -5.9753   -1.1718   52.7135 H       1  ZINC000563265674    0.1300
     41 H41        -6.8055   -1.4360   51.1614 H       1  ZINC000563265674    0.1400
     42 H42        -6.1285    0.1643   51.5476 H       1  ZINC000563265674    0.1400
     43 H43        -6.2580    1.8735   52.7737 H       1  ZINC000563265674    0.1500
     44 H44        -5.6202    3.4816   54.5246 H       1  ZINC000563265674    0.1500
@<TRIPOS>BOND
     1     1     2    1
     2     1    26    1
     3     1    27    1
     4     1    28    1
     5     2    25    1
     6     2     3    2
     7     3     4    1
     8     4     5    1
     9     5     6    1
    10     5    25    2
    11     6     7    1
    12     6     8    1
    13     6     9    1
    14     7    29    1
    15     7    30    1
    16     7    31    1
    17     8    32    1
    18     8    33    1
    19     8    34    1
    20     9    10    1
    21     9    35    1
    22    10    11    1
    23    10    36    1
    24    10    37    1
    25    11    12    2
    26    11    13   am
    27    13    14    1
    28    13    38    1
    29    14    23   ar
    30    14    15   ar
    31    15    16   ar
    32    15    39    1
    33    16    17    1
    34    16    21   ar
    35    17    18    1
    36    17    19    2
    37    17    20    2
    38    18    40    1
    39    18    41    1
    40    18    42    1
    41    21    22   ar
    42    21    43    1
    43    22    23   ar
    44    22    44    1
    45    23    24    1
@<TRIPOS>SUBSTRUCTURE
     1 ZINC000563265674        1 TEMP              0 ****  ****    0 ROOT


##########                                Name:    ZINC000788423111
##########                DOCK_Rotatable_Bonds:                   7
##########                         Heavy_Atoms:                  23
##########                    Molecular_Weight:             399.243
##########                DOCK_Rotatable_Bonds:                   7
##########                       Formal_Charge:         1.04308e-07
##########                     HBond_Acceptors:                   8
##########                        HBond_Donors:                   1
##########                         Heavy_Atoms:                  23
##########                          Grid_Score:          -29.975071
##########                     Grid_vdw_energy:          -30.383316
##########                      Grid_es_energy:            0.408244
##########           Internal_energy_repulsive:            4.985326

@<TRIPOS>MOLECULE
ZINC000788423111
 35 37 1 0 0
SMALL
USER_CHARGES


@<TRIPOS>ATOM
      1 O1         -1.0734    2.1413   52.0564 O.3     1  ZINC000788423111   -0.5400
      2 C2         -1.9623    2.3701   50.9610 C.3     1  ZINC000788423111    0.1000
      3 H3         -2.5340    1.4637   50.7616 H       1  ZINC000788423111    0.1300
      4 C4         -1.1535    2.7467   49.7181 C.3     1  ZINC000788423111    0.0300
      5 O5         -0.1854    1.7293   49.4534 O.3     1  ZINC000788423111   -0.2900
      6 C6         -0.4810    0.8366   48.4725 C.ar    1  ZINC000788423111    0.1700
      7 C7         -0.3949   -0.5246   48.7234 C.ar    1  ZINC000788423111   -0.2400
      8 C8         -0.6963   -1.4319   47.7229 C.ar    1  ZINC000788423111    0.1500
      9 F9         -0.6128   -2.7582   47.9663 F       1  ZINC000788423111   -0.1300
     10 C10        -1.0840   -0.9808   46.4726 C.ar    1  ZINC000788423111   -0.1600
     11 C11        -1.1697    0.3769   46.2214 C.ar    1  ZINC000788423111   -0.0300
     12 Br12       -1.6995    0.9899   44.5127 Br      1  ZINC000788423111   -0.0200
     13 C13        -0.8749    1.2859   47.2201 C.ar    1  ZINC000788423111   -0.1300
     14 C14        -2.9201    3.5107   51.3111 C.3     1  ZINC000788423111    0.1000
     15 N15        -4.0797    2.9724   52.0263 N.pl3   1  ZINC000788423111   -0.1300
     16 N16        -4.6628    3.5333   53.0275 N.2     1  ZINC000788423111   -0.0500
     17 N17        -5.6447    2.7903   53.4116 N.2     1  ZINC000788423111   -0.2600
     18 C18        -5.6697    1.7164   52.6072 C.2     1  ZINC000788423111    0.2400
     19 C19        -6.6248    0.5885   52.6678 C.2     1  ZINC000788423111   -0.1300
     20 C20        -6.5753   -0.5152   51.8968 C.2     1  ZINC000788423111   -0.0800
     21 C21        -7.5781   -1.4321   52.1369 C.2     1  ZINC000788423111   -0.1400
     22 C22        -8.4430   -1.0869   53.0948 C.2     1  ZINC000788423111   -0.2000
     23 S23        -7.9967    0.4773   53.7630 S.3     1  ZINC000788423111    0.1700
     24 N24        -4.6791    1.8660   51.7478 N.2     1  ZINC000788423111   -0.2900
     25 H25        -0.4159    1.4516   51.8919 H       1  ZINC000788423111    0.3800
     26 H26        -1.8236    2.8416   48.8636 H       1  ZINC000788423111    0.0900
     27 H27        -0.6457    3.6958   49.8887 H       1  ZINC000788423111    0.0800
     28 H28        -0.0925   -0.8762   49.6988 H       1  ZINC000788423111    0.1500
     29 H29        -1.3194   -1.6896   45.6925 H       1  ZINC000788423111    0.1500
     30 H30        -0.9424    2.3456   47.0232 H       1  ZINC000788423111    0.1500
     31 H31        -2.4069    4.2348   51.9439 H       1  ZINC000788423111    0.1300
     32 H32        -3.2527    3.9997   50.3955 H       1  ZINC000788423111    0.1300
     33 H33        -5.8112   -0.6698   51.1494 H       1  ZINC000788423111    0.1500
     34 H34        -7.6579   -2.3603   51.5905 H       1  ZINC000788423111    0.1500
     35 H35        -9.2866   -1.6810   53.4138 H       1  ZINC000788423111    0.1700
@<TRIPOS>BOND
     1     1     2    1
     2     1    25    1
     3     2     3    1
     4     2     4    1
     5     2    14    1
     6     4     5    1
     7     4    26    1
     8     4    27    1
     9     5     6    1
    10     6    13   ar
    11     6     7   ar
    12     7     8   ar
    13     7    28    1
    14     8     9    1
    15     8    10   ar
    16    10    11   ar
    17    10    29    1
    18    11    12    1
    19    11    13   ar
    20    13    30    1
    21    14    15    1
    22    14    31    1
    23    14    32    1
    24    15    24    1
    25    15    16    1
    26    16    17    2
    27    17    18    1
    28    18    19    1
    29    18    24    2
    30    19    23    1
    31    19    20    2
    32    20    21    1
    33    20    33    1
    34    21    22    2
    35    21    34    1
    36    22    23    1
    37    22    35    1
@<TRIPOS>SUBSTRUCTURE
     1 ZINC000788423111        1 TEMP              0 ****  ****    0 ROOT


##########                                Name:    ZINC000824084043
##########                DOCK_Rotatable_Bonds:                  11
##########                         Heavy_Atoms:                  27
##########                    Molecular_Weight:             382.547
##########                DOCK_Rotatable_Bonds:                  11
##########                       Formal_Charge:        -6.85453e-07
##########                     HBond_Acceptors:                   7
##########                        HBond_Donors:                   3
##########                         Heavy_Atoms:                  27
##########                          Grid_Score:          -29.972233
##########                     Grid_vdw_energy:          -31.241961
##########                      Grid_es_energy:            1.269727
##########           Internal_energy_repulsive:           23.566439

@<TRIPOS>MOLECULE
ZINC000824084043
 65 66 1 0 0
SMALL
USER_CHARGES


@<TRIPOS>ATOM
      1 C1         -7.6143    2.7563   53.8031 C.3     1  ZINC000824084043   -0.1400
      2 C2         -8.7524    1.7848   54.1221 C.3     1  ZINC000824084043   -0.1000
      3 C3        -10.0203    2.2259   53.3880 C.3     1  ZINC000824084043   -0.1300
      4 C4         -8.3635    0.3767   53.6672 C.3     1  ZINC000824084043    0.1700
      5 H5         -7.3979    0.1099   54.0965 H       1  ZINC000824084043    0.0700
      6 C6         -9.4236   -0.6218   54.1363 C.3     1  ZINC000824084043   -0.1400
      7 C7         -9.7839   -0.3352   55.5954 C.3     1  ZINC000824084043    0.1300
      8 N8        -10.4319   -1.5127   56.1787 N.am    1  ZINC000824084043   -0.6200
      9 C9        -11.1914   -2.4292   55.3247 C.3     1  ZINC000824084043    0.0800
     10 C10       -10.3292   -1.7526   57.5009 C.2     1  ZINC000824084043    0.7000
     11 O11       -10.8680   -2.7290   57.9854 O.2     1  ZINC000824084043   -0.5800
     12 N12        -9.6290   -0.9103   58.2863 N.am    1  ZINC000824084043   -0.7500
     13 C13        -9.5188   -1.1700   59.7238 C.3     1  ZINC000824084043    0.1600
     14 C14        -8.0745   -0.9377   60.1769 C.3     1  ZINC000824084043   -0.1600
     15 C15        -7.9832   -1.1333   61.6918 C.3     1  ZINC000824084043   -0.0100
     16 N16        -8.8691   -0.1769   62.3665 N.4     1  ZINC000824084043   -0.3800
     17 H17        -8.6197    0.7617   62.0929 H       1  ZINC000824084043    0.4200
     18 C18        -8.7210   -0.3168   63.8213 C.3     1  ZINC000824084043    0.0000
     19 C19        -8.1935    0.9938   64.4087 C.3     1  ZINC000824084043   -0.1200
     20 C20        -9.3562    1.8303   64.9982 C.3     1  ZINC000824084043   -0.1400
     21 C21        -8.6375    2.7347   66.0300 C.3     1  ZINC000824084043   -0.1200
     22 C22        -7.5602    1.8203   66.6491 C.3     1  ZINC000824084043   -0.1300
     23 C23        -7.2778    0.7134   65.6181 C.3     1  ZINC000824084043   -0.1100
     24 C24       -10.2637   -0.4400   61.9920 C.3     1  ZINC000824084043    0.0000
     25 C25       -10.4427   -0.2178   60.4886 C.3     1  ZINC000824084043   -0.1600
     26 N26        -8.2740    0.3430   52.2053 N.am    1  ZINC000824084043   -0.7800
     27 C27        -7.5553   -0.6208   51.5962 C.2     1  ZINC000824084043    0.6600
     28 O28        -7.4817   -0.6498   50.3757 O.co2   1  ZINC000824084043   -0.7200
     29 O29        -6.9767   -1.4665   52.2641 O.co2   1  ZINC000824084043   -0.7300
     30 H30        -7.8914    3.7594   54.1271 H       1  ZINC000824084043    0.0500
     31 H31        -6.7110    2.4420   54.3260 H       1  ZINC000824084043    0.0500
     32 H32        -7.4297    2.7594   52.7289 H       1  ZINC000824084043    0.0500
     33 H33        -8.9370    1.7815   55.1964 H       1  ZINC000824084043    0.0500
     34 H34        -9.8357    2.2290   52.3139 H       1  ZINC000824084043    0.0600
     35 H35       -10.8312    1.5338   53.6154 H       1  ZINC000824084043    0.0700
     36 H36       -10.2974    3.2290   53.7121 H       1  ZINC000824084043    0.0300
     37 H37       -10.3146   -0.5240   53.5161 H       1  ZINC000824084043    0.0700
     38 H38        -9.0312   -1.6351   54.0513 H       1  ZINC000824084043    0.0600
     39 H39        -8.8775   -0.1048   56.1550 H       1  ZINC000824084043    0.0900
     40 H40       -10.4652    0.5144   55.6413 H       1  ZINC000824084043    0.0900
     41 H41       -10.5282   -3.2074   54.9468 H       1  ZINC000824084043    0.0600
     42 H42       -11.9936   -2.8855   55.9046 H       1  ZINC000824084043    0.0600
     43 H43       -11.6174   -1.8766   54.4873 H       1  ZINC000824084043    0.0800
     44 H44        -9.1981   -0.1319   57.8996 H       1  ZINC000824084043    0.4000
     45 H45        -9.8057   -2.2010   59.9309 H       1  ZINC000824084043    0.1100
     46 H46        -7.4175   -1.6500   59.6777 H       1  ZINC000824084043    0.1200
     47 H47        -7.7720    0.0780   59.9221 H       1  ZINC000824084043    0.0900
     48 H48        -8.2857   -2.1493   61.9454 H       1  ZINC000824084043    0.1300
     49 H49        -6.9561   -0.9688   62.0177 H       1  ZINC000824084043    0.1300
     50 H50        -9.6893   -0.5499   64.2643 H       1  ZINC000824084043    0.1300
     51 H51        -8.0187   -1.1214   64.0393 H       1  ZINC000824084043    0.1300
     52 H52        -7.6583    1.5632   63.6487 H       1  ZINC000824084043    0.1000
     53 H53        -9.8317    2.4310   64.2229 H       1  ZINC000824084043    0.0700
     54 H54       -10.0847    1.1860   65.4905 H       1  ZINC000824084043    0.0800
     55 H55        -8.1747    3.5873   65.5331 H       1  ZINC000824084043    0.0700
     56 H56        -9.3373    3.0714   66.7949 H       1  ZINC000824084043    0.0800
     57 H57        -6.6519    2.3913   66.8421 H       1  ZINC000824084043    0.0700
     58 H58        -7.9301    1.3819   67.5758 H       1  ZINC000824084043    0.0700
     59 H59        -7.5109   -0.2622   66.0446 H       1  ZINC000824084043    0.0700
     60 H60        -6.2327    0.7472   65.3108 H       1  ZINC000824084043    0.0800
     61 H61       -10.5176   -1.4708   62.2392 H       1  ZINC000824084043    0.1300
     62 H62       -10.9202    0.2362   62.5395 H       1  ZINC000824084043    0.1300
     63 H63       -10.1894    0.8128   60.2403 H       1  ZINC000824084043    0.0900
     64 H64       -11.4784   -0.4154   60.2123 H       1  ZINC000824084043    0.1200
     65 H65        -8.7318    1.0145   51.6758 H       1  ZINC000824084043    0.3600
@<TRIPOS>BOND
     1     1     2    1
     2     1    30    1
     3     1    31    1
     4     1    32    1
     5     2     3    1
     6     2     4    1
     7     2    33    1
     8     3    34    1
     9     3    35    1
    10     3    36    1
    11     4     5    1
    12     4     6    1
    13     4    26    1
    14     6     7    1
    15     6    37    1
    16     6    38    1
    17     7     8    1
    18     7    39    1
    19     7    40    1
    20     8     9    1
    21     8    10   am
    22     9    41    1
    23     9    42    1
    24     9    43    1
    25    10    11    2
    26    10    12   am
    27    12    13    1
    28    12    44    1
    29    13    25    1
    30    13    14    1
    31    13    45    1
    32    14    15    1
    33    14    46    1
    34    14    47    1
    35    15    16    1
    36    15    48    1
    37    15    49    1
    38    16    17    1
    39    16    18    1
    40    16    24    1
    41    18    19    1
    42    18    50    1
    43    18    51    1
    44    19    23    1
    45    19    20    1
    46    19    52    1
    47    20    21    1
    48    20    53    1
    49    20    54    1
    50    21    22    1
    51    21    55    1
    52    21    56    1
    53    22    23    1
    54    22    57    1
    55    22    58    1
    56    23    59    1
    57    23    60    1
    58    24    25    1
    59    24    61    1
    60    24    62    1
    61    25    63    1
    62    25    64    1
    63    26    27   am
    64    26    65    1
    65    27    28   ar
    66    27    29   ar
@<TRIPOS>SUBSTRUCTURE
     1 ZINC000824084043        1 TEMP              0 ****  ****    0 ROOT


##########                                Name:    ZINC000561219098
##########                DOCK_Rotatable_Bonds:                   4
##########                         Heavy_Atoms:                  28
##########                    Molecular_Weight:             423.273
##########                DOCK_Rotatable_Bonds:                   4
##########                       Formal_Charge:          0.00999953
##########                     HBond_Acceptors:                   9
##########                        HBond_Donors:                   1
##########                         Heavy_Atoms:                  28
##########                          Grid_Score:          -29.946169
##########                     Grid_vdw_energy:          -29.135061
##########                      Grid_es_energy:           -0.811108
##########           Internal_energy_repulsive:            9.501969

@<TRIPOS>MOLECULE
ZINC000561219098
 45 48 1 0 0
SMALL
USER_CHARGES


@<TRIPOS>ATOM
      1 C1         -5.8225   -0.0308   51.5687 C.3     1  ZINC000561219098    0.0700
      2 N2         -7.0842   -0.3888   52.2214 N.pl3   1  ZINC000561219098   -0.4500
      3 C3         -8.1041   -1.0877   51.6452 C.2     1  ZINC000561219098   -0.0100
      4 C4         -9.0932   -1.2230   52.5484 C.2     1  ZINC000561219098   -0.1700
      5 C5         -8.6698   -0.5799   53.7387 C.2     1  ZINC000561219098   -0.1100
      6 C6         -9.4370   -0.4754   55.0061 C.2     1  ZINC000561219098    0.1600
      7 N7        -10.5736   -1.0862   55.2702 N.2     1  ZINC000561219098   -0.2700
      8 N8        -10.9809   -0.7370   56.5636 N.pl3   1  ZINC000561219098   -0.4700
      9 C9        -10.0462    0.1147   57.0836 C.2     1  ZINC000561219098    0.0300
     10 C10       -10.0739    0.7301   58.4204 C.2     1  ZINC000561219098    0.5900
     11 O11       -10.7426    1.7268   58.6173 O.2     1  ZINC000561219098   -0.5000
     12 N12        -9.3584    0.1892   59.4262 N.am    1  ZINC000561219098   -0.6100
     13 C13        -8.5420   -1.0162   59.2122 C.3     1  ZINC000561219098    0.0500
     14 C14        -8.8862   -2.0338   60.3060 C.3     1  ZINC000561219098    0.0500
     15 O15        -8.7695   -1.4070   61.5856 O.3     1  ZINC000561219098   -0.3700
     16 C16        -9.6739   -0.3186   61.7887 C.3     1  ZINC000561219098    0.1200
     17 H17       -10.6981   -0.6662   61.6537 H       1  ZINC000561219098    0.0900
     18 C18        -9.5056    0.2217   63.1854 C.ar    1  ZINC000561219098   -0.0500
     19 C19        -8.2486    0.2795   63.7567 C.ar    1  ZINC000561219098   -0.1000
     20 C20        -8.0936    0.7762   65.0396 C.ar    1  ZINC000561219098    0.1200
     21 F21        -6.8649    0.8332   65.5984 F       1  ZINC000561219098   -0.1200
     22 C22        -9.1991    1.2151   65.7500 C.ar    1  ZINC000561219098   -0.0600
     23 Cl23       -9.0061    1.8386   67.3587 Cl      1  ZINC000561219098   -0.0300
     24 C24       -10.4564    1.1566   65.1769 C.ar    1  ZINC000561219098   -0.0700
     25 C25       -10.6091    0.6650   63.8930 C.ar    1  ZINC000561219098   -0.0300
     26 Cl26      -12.1874    0.5923   63.1738 Cl      1  ZINC000561219098   -0.0400
     27 C27        -9.3656    0.7901   60.7695 C.3     1  ZINC000561219098    0.0900
     28 C28        -9.0703    0.2852   56.1256 C.2     1  ZINC000561219098   -0.1700
     29 C29        -7.4264   -0.0825   53.5039 C.2     1  ZINC000561219098    0.0300
     30 H30        -5.0926   -0.8244   51.7288 H       1  ZINC000561219098    0.0800
     31 H31        -5.9904    0.0983   50.4995 H       1  ZINC000561219098    0.0900
     32 H32        -5.4456    0.9002   51.9922 H       1  ZINC000561219098    0.0900
     33 H33        -8.1159   -1.4684   50.6346 H       1  ZINC000561219098    0.1700
     34 H34       -10.0353   -1.7282   52.3945 H       1  ZINC000561219098    0.1400
     35 H35       -11.7846   -1.0445   57.0113 H       1  ZINC000561219098    0.4400
     36 H36        -8.7637   -1.4406   58.2330 H       1  ZINC000561219098    0.1000
     37 H37        -7.4845   -0.7584   59.2703 H       1  ZINC000561219098    0.0900
     38 H38        -9.9076   -2.3876   60.1656 H       1  ZINC000561219098    0.0700
     39 H39        -8.1971   -2.8764   60.2491 H       1  ZINC000561219098    0.1200
     40 H40        -7.3873   -0.0632   63.2025 H       1  ZINC000561219098    0.1600
     41 H41       -11.3186    1.4982   65.7304 H       1  ZINC000561219098    0.1600
     42 H42        -8.3915    1.2281   60.9870 H       1  ZINC000561219098    0.0900
     43 H43       -10.1350    1.5605   60.8212 H       1  ZINC000561219098    0.1100
     44 H44        -8.1866    0.8992   56.2178 H       1  ZINC000561219098    0.1600
     45 H45        -6.8192    0.4661   54.2088 H       1  ZINC000561219098    0.1700
@<TRIPOS>BOND
     1     1     2    1
     2     1    30    1
     3     1    31    1
     4     1    32    1
     5     2    29    1
     6     2     3    1
     7     3     4    2
     8     3    33    1
     9     4     5    1
    10     4    34    1
    11     5     6    1
    12     5    29    2
    13     6    28    1
    14     6     7    2
    15     7     8    1
    16     8     9    1
    17     8    35    1
    18     9    10    1
    19     9    28    2
    20    10    11    2
    21    10    12   am
    22    12    27    1
    23    12    13    1
    24    13    14    1
    25    13    36    1
    26    13    37    1
    27    14    15    1
    28    14    38    1
    29    14    39    1
    30    15    16    1
    31    16    17    1
    32    16    18    1
    33    16    27    1
    34    18    25   ar
    35    18    19   ar
    36    19    20   ar
    37    19    40    1
    38    20    21    1
    39    20    22   ar
    40    22    23    1
    41    22    24   ar
    42    24    25   ar
    43    24    41    1
    44    25    26    1
    45    27    42    1
    46    27    43    1
    47    28    44    1
    48    29    45    1
@<TRIPOS>SUBSTRUCTURE
     1 ZINC000561219098        1 TEMP              0 ****  ****    0 ROOT


##########                                Name:    ZINC000906038034
##########                DOCK_Rotatable_Bonds:                   5
##########                         Heavy_Atoms:                  23
##########                    Molecular_Weight:             387.428
##########                DOCK_Rotatable_Bonds:                   5
##########                       Formal_Charge:         -0.00999987
##########                     HBond_Acceptors:                  12
##########                        HBond_Donors:                   0
##########                         Heavy_Atoms:                  23
##########                          Grid_Score:          -29.938744
##########                     Grid_vdw_energy:          -30.097300
##########                      Grid_es_energy:            0.158557
##########           Internal_energy_repulsive:            3.892402

@<TRIPOS>MOLECULE
ZINC000906038034
 35 36 1 0 0
SMALL
USER_CHARGES


@<TRIPOS>ATOM
      1 C1         -2.4868    1.1770   45.8596 C.3     1  ZINC000906038034    0.1000
      2 N2         -2.5376    1.9157   47.1238 N.pl3   1  ZINC000906038034   -0.3700
      3 C3         -1.7924    2.9969   47.4402 C.2     1  ZINC000906038034    0.0600
      4 C4         -2.1299    3.3862   48.6882 C.2     1  ZINC000906038034   -0.2500
      5 C5         -3.1259    2.5068   49.1608 C.2     1  ZINC000906038034    0.1200
      6 C6         -3.7828    2.5660   50.4844 C.2     1  ZINC000906038034    0.1500
      7 N7         -4.8381    1.8885   50.8353 N.2     1  ZINC000906038034   -0.4300
      8 C8         -5.2842    2.0690   52.0578 C.2     1  ZINC000906038034    0.0600
      9 C9         -6.4961    1.3433   52.5827 C.3     1  ZINC000906038034   -0.5300
     10 S10        -6.6795   -0.2368   51.7108 S.o2    1  ZINC000906038034    2.4200
     11 O11        -7.0169    0.0299   50.3564 O.2     1  ZINC000906038034   -0.9100
     12 O12        -5.5471   -1.0460   51.9972 O.2     1  ZINC000906038034   -0.9200
     13 C13        -8.1264   -0.9547   52.5364 C.3     1  ZINC000906038034   -0.6100
     14 C14        -9.4032   -0.3976   51.9039 C.3     1  ZINC000906038034   -0.4500
     15 S15       -10.6536   -0.1394   53.1925 S.o     1  ZINC000906038034    1.3300
     16 O16       -11.0023   -1.3895   53.7713 O.2     1  ZINC000906038034   -0.7600
     17 C17       -12.0686    0.5123   52.2633 C.3     1  ZINC000906038034    0.1200
     18 F18       -12.4694   -0.4253   51.3055 F       1  ZINC000906038034   -0.1900
     19 F19       -13.1279    0.7631   53.1421 F       1  ZINC000906038034   -0.1700
     20 F20       -11.7000    1.7018   51.6258 F       1  ZINC000906038034   -0.1600
     21 C21        -4.5961    2.9359   52.8071 C.2     1  ZINC000906038034   -0.2300
     22 S22        -3.2590    3.5587   51.8423 S.3     1  ZINC000906038034    0.1600
     23 N23        -3.3716    1.6263   48.2113 N.2     1  ZINC000906038034   -0.2400
     24 H24        -3.1972    1.6114   45.1562 H       1  ZINC000906038034    0.0800
     25 H25        -1.4809    1.2372   45.4438 H       1  ZINC000906038034    0.0900
     26 H26        -2.7443    0.1330   46.0381 H       1  ZINC000906038034    0.0900
     27 H27        -1.0555    3.4673   46.8061 H       1  ZINC000906038034    0.1800
     28 H28        -1.7111    4.2222   49.2288 H       1  ZINC000906038034    0.1600
     29 H29        -6.3744    1.1575   53.6498 H       1  ZINC000906038034    0.1500
     30 H30        -7.3842    1.9537   52.4192 H       1  ZINC000906038034    0.1600
     31 H31        -8.1083   -2.0388   52.4239 H       1  ZINC000906038034    0.1500
     32 H32        -8.1043   -0.6991   53.5957 H       1  ZINC000906038034    0.1500
     33 H33        -9.1827    0.5519   51.4161 H       1  ZINC000906038034    0.1600
     34 H34        -9.7821   -1.1053   51.1665 H       1  ZINC000906038034    0.1300
     35 H35        -4.8186    3.2051   53.8291 H       1  ZINC000906038034    0.1900
@<TRIPOS>BOND
     1     1     2    1
     2     1    24    1
     3     1    25    1
     4     1    26    1
     5     2    23    1
     6     2     3    1
     7     3     4    2
     8     3    27    1
     9     4     5    1
    10     4    28    1
    11     5     6    1
    12     5    23    2
    13     6    22    1
    14     6     7    2
    15     7     8    1
    16     8     9    1
    17     8    21    2
    18     9    10    1
    19     9    29    1
    20     9    30    1
    21    10    11    2
    22    10    12    2
    23    10    13    1
    24    13    14    1
    25    13    31    1
    26    13    32    1
    27    14    15    1
    28    14    33    1
    29    14    34    1
    30    15    16    2
    31    15    17    1
    32    17    18    1
    33    17    19    1
    34    17    20    1
    35    21    22    1
    36    21    35    1
@<TRIPOS>SUBSTRUCTURE
     1 ZINC000906038034        1 TEMP              0 ****  ****    0 ROOT


##########                                Name:    ZINC000074782190
##########                DOCK_Rotatable_Bonds:                   9
##########                         Heavy_Atoms:                  25
##########                    Molecular_Weight:             341.453
##########                DOCK_Rotatable_Bonds:                   9
##########                       Formal_Charge:          -0.0200006
##########                     HBond_Acceptors:                   5
##########                        HBond_Donors:                   1
##########                         Heavy_Atoms:                  25
##########                          Grid_Score:          -29.927464
##########                     Grid_vdw_energy:          -30.649431
##########                      Grid_es_energy:            0.721967
##########           Internal_energy_repulsive:           27.520859

@<TRIPOS>MOLECULE
ZINC000074782190
 52 53 1 0 0
SMALL
USER_CHARGES


@<TRIPOS>ATOM
      1 C1          0.4542    1.1760   50.2160 C.3     1  ZINC000074782190   -0.1100
      2 C2         -0.3280    0.4290   49.1666 C.ar    1  ZINC000074782190   -0.1200
      3 C3          0.0038   -0.8751   48.8551 C.ar    1  ZINC000074782190   -0.0800
      4 C4         -0.7132   -1.5610   47.8918 C.ar    1  ZINC000074782190   -0.1500
      5 C5         -1.7637   -0.9437   47.2387 C.ar    1  ZINC000074782190   -0.0900
      6 C6         -2.0998    0.3604   47.5470 C.ar    1  ZINC000074782190   -0.2100
      7 C7         -1.3856    1.0488   48.5165 C.ar    1  ZINC000074782190    0.1300
      8 O8         -1.7141    2.3318   48.8216 O.3     1  ZINC000074782190   -0.3000
      9 C9         -3.0244    2.5590   49.3445 C.3     1  ZINC000074782190    0.0700
     10 H10        -3.7532    2.0064   48.7515 H       1  ZINC000074782190    0.0800
     11 C11        -3.3457    4.0536   49.2837 C.3     1  ZINC000074782190   -0.1800
     12 C12        -3.0833    2.0834   50.7974 C.3     1  ZINC000074782190    0.1400
     13 N13        -4.3494    1.3846   51.0317 N.am    1  ZINC000074782190   -0.7500
     14 C14        -5.3161    1.9697   51.7663 C.2     1  ZINC000074782190    0.7100
     15 O15        -5.1375    3.0774   52.2345 O.2     1  ZINC000074782190   -0.5900
     16 N16        -6.4809    1.3269   51.9818 N.am    1  ZINC000074782190   -0.6200
     17 C17        -7.5317    1.9629   52.7802 C.3     1  ZINC000074782190    0.1800
     18 C18        -7.1785    1.8684   54.2422 C.ar    1  ZINC000074782190   -0.1600
     19 C19        -7.6943    0.8468   55.0244 C.ar    1  ZINC000074782190   -0.0500
     20 C20        -7.3415    0.7991   56.3647 C.ar    1  ZINC000074782190   -0.1800
     21 C21        -6.4933    1.7648   56.8724 C.ar    1  ZINC000074782190    0.1000
     22 N22        -6.0214    2.7226   56.0983 N.ar    1  ZINC000074782190   -0.4900
     23 C23        -6.3313    2.7960   54.8189 C.ar    1  ZINC000074782190    0.1100
     24 C24        -6.6962   -0.0079   51.4176 C.3     1  ZINC000074782190    0.1300
     25 C25        -7.3405   -0.9096   52.4726 C.3     1  ZINC000074782190   -0.1800
     26 C26        -7.6195    0.0950   50.2021 C.3     1  ZINC000074782190   -0.1800
     27 H27        -0.0021    1.0148   51.1927 H       1  ZINC000074782190    0.0700
     28 H28         1.4818    0.8126   50.2306 H       1  ZINC000074782190    0.0600
     29 H29         0.4487    2.2410   49.9839 H       1  ZINC000074782190    0.0700
     30 H30         0.8240   -1.3594   49.3640 H       1  ZINC000074782190    0.1300
     31 H31        -0.4518   -2.5804   47.6492 H       1  ZINC000074782190    0.1200
     32 H32        -2.3220   -1.4814   46.4865 H       1  ZINC000074782190    0.1200
     33 H33        -2.9204    0.8423   47.0362 H       1  ZINC000074782190    0.1300
     34 H34        -2.6170    4.6063   49.8767 H       1  ZINC000074782190    0.0700
     35 H35        -3.3039    4.3925   48.2486 H       1  ZINC000074782190    0.0700
     36 H36        -4.3452    4.2270   49.6826 H       1  ZINC000074782190    0.0800
     37 H37        -2.2526    1.4049   50.9915 H       1  ZINC000074782190    0.0800
     38 H38        -3.0138    2.9429   51.4643 H       1  ZINC000074782190    0.0900
     39 H39        -4.4920    0.5009   50.6581 H       1  ZINC000074782190    0.4100
     40 H40        -7.6207    3.0110   52.4949 H       1  ZINC000074782190    0.0900
     41 H41        -8.4802    1.4561   52.6022 H       1  ZINC000074782190    0.1000
     42 H42        -8.3556    0.1057   54.6002 H       1  ZINC000074782190    0.1400
     43 H43        -7.7251    0.0175   57.0036 H       1  ZINC000074782190    0.1300
     44 H44        -6.2141    1.7349   57.9152 H       1  ZINC000074782190    0.1600
     45 H45        -5.9252    3.5951   54.2163 H       1  ZINC000074782190    0.1500
     46 H46        -5.7396   -0.4320   51.1124 H       1  ZINC000074782190    0.1000
     47 H47        -8.3358   -0.5351   52.7117 H       1  ZINC000074782190    0.0600
     48 H48        -7.4179   -1.9251   52.0843 H       1  ZINC000074782190    0.0700
     49 H49        -6.7266   -0.9109   53.3733 H       1  ZINC000074782190    0.0600
     50 H50        -7.1129    0.6409   49.4061 H       1  ZINC000074782190    0.0700
     51 H51        -7.8726   -0.9058   49.8522 H       1  ZINC000074782190    0.0700
     52 H52        -8.5311    0.6233   50.4818 H       1  ZINC000074782190    0.0700
@<TRIPOS>BOND
     1     1     2    1
     2     1    27    1
     3     1    28    1
     4     1    29    1
     5     2     7   ar
     6     2     3   ar
     7     3     4   ar
     8     3    30    1
     9     4     5   ar
    10     4    31    1
    11     5     6   ar
    12     5    32    1
    13     6     7   ar
    14     6    33    1
    15     7     8    1
    16     8     9    1
    17     9    10    1
    18     9    11    1
    19     9    12    1
    20    11    34    1
    21    11    35    1
    22    11    36    1
    23    12    13    1
    24    12    37    1
    25    12    38    1
    26    13    14   am
    27    13    39    1
    28    14    15    2
    29    14    16   am
    30    16    17    1
    31    16    24    1
    32    17    18    1
    33    17    40    1
    34    17    41    1
    35    18    23   ar
    36    18    19   ar
    37    19    20   ar
    38    19    42    1
    39    20    21   ar
    40    20    43    1
    41    21    22   ar
    42    21    44    1
    43    22    23   ar
    44    23    45    1
    45    24    25    1
    46    24    26    1
    47    24    46    1
    48    25    47    1
    49    25    48    1
    50    25    49    1
    51    26    50    1
    52    26    51    1
    53    26    52    1
@<TRIPOS>SUBSTRUCTURE
     1 ZINC000074782190        1 TEMP              0 ****  ****    0 ROOT


##########                                Name:    ZINC000460972051
##########                DOCK_Rotatable_Bonds:                  10
##########                         Heavy_Atoms:                  29
##########                    Molecular_Weight:             417.572
##########                DOCK_Rotatable_Bonds:                  10
##########                       Formal_Charge:         3.31551e-07
##########                     HBond_Acceptors:                   7
##########                        HBond_Donors:                   2
##########                         Heavy_Atoms:                  29
##########                          Grid_Score:          -29.922672
##########                     Grid_vdw_energy:          -30.808897
##########                      Grid_es_energy:            0.886225
##########           Internal_energy_repulsive:           32.486488

@<TRIPOS>MOLECULE
ZINC000460972051
 60 61 1 0 0
SMALL
USER_CHARGES


@<TRIPOS>ATOM
      1 C1         -7.5914    0.2724   64.3087 C.3     1  ZINC000460972051   -0.1800
      2 C2         -8.8567   -0.3670   63.7330 C.3     1  ZINC000460972051    0.1000
      3 N3         -9.2650    0.3582   62.5273 N.am    1  ZINC000460972051   -0.6200
      4 C4         -8.8234   -0.0417   61.3184 C.2     1  ZINC000460972051    0.7100
      5 O5         -8.0849   -1.0035   61.2286 O.2     1  ZINC000460972051   -0.5800
      6 N6         -9.2003    0.6244   60.2091 N.am    1  ZINC000460972051   -0.7400
      7 C7         -8.7217    0.1887   58.8948 C.3     1  ZINC000460972051    0.2000
      8 H8         -7.8145   -0.4033   59.0165 H       1  ZINC000460972051    0.1100
      9 C9         -9.7979   -0.6608   58.2160 C.3     1  ZINC000460972051    0.1100
     10 N10        -9.5849   -2.0726   58.5445 N.am    1  ZINC000460972051   -1.1200
     11 S11       -10.6657   -3.2154   58.0266 S.o2    1  ZINC000460972051    2.7000
     12 O12       -10.7913   -3.0416   56.6219 O.2     1  ZINC000460972051   -0.9500
     13 O13       -10.2706   -4.4419   58.6256 O.2     1  ZINC000460972051   -0.9600
     14 C14       -12.2321   -2.8045   58.7209 C.ar    1  ZINC000460972051   -0.6900
     15 C15       -12.3062   -1.9372   59.7943 C.ar    1  ZINC000460972051   -0.0100
     16 C16       -13.5354   -1.6148   60.3391 C.ar    1  ZINC000460972051   -0.1500
     17 C17       -14.6901   -2.1596   59.8099 C.ar    1  ZINC000460972051   -0.0200
     18 C18       -16.0298   -1.8086   60.4040 C.3     1  ZINC000460972051   -0.1300
     19 C19       -14.6162   -3.0262   58.7352 C.ar    1  ZINC000460972051   -0.1500
     20 C20       -13.3877   -3.3455   58.1882 C.ar    1  ZINC000460972051    0.0300
     21 C21       -13.3070   -4.2901   57.0168 C.3     1  ZINC000460972051   -0.1700
     22 C22        -8.4233    1.3957   58.0433 C.ar    1  ZINC000460972051   -0.1000
     23 C23        -9.4592    2.1673   57.5508 C.ar    1  ZINC000460972051   -0.1000
     24 C24        -9.1855    3.2745   56.7698 C.ar    1  ZINC000460972051   -0.1200
     25 C25        -7.8759    3.6105   56.4816 C.ar    1  ZINC000460972051   -0.1200
     26 C26        -6.8400    2.8395   56.9748 C.ar    1  ZINC000460972051   -0.1200
     27 C27        -7.1136    1.7347   57.7594 C.ar    1  ZINC000460972051   -0.1000
     28 C28       -10.1533    1.5181   62.6357 C.3     1  ZINC000460972051    0.1500
     29 C29       -10.9778    1.4108   63.9201 C.3     1  ZINC000460972051   -0.1600
     30 C30        -9.3175    2.7991   62.6717 C.3     1  ZINC000460972051   -0.1600
     31 H31        -7.2876   -0.2672   65.2057 H       1  ZINC000460972051    0.0700
     32 H32        -6.7923    0.2263   63.5688 H       1  ZINC000460972051    0.0600
     33 H33        -7.7931    1.3132   64.5614 H       1  ZINC000460972051    0.0700
     34 H34        -8.6551   -1.4079   63.4802 H       1  ZINC000460972051    0.0700
     35 H35        -9.6559   -0.3210   64.4728 H       1  ZINC000460972051    0.0900
     36 H36        -9.7885    1.3924   60.2809 H       1  ZINC000460972051    0.4000
     37 H37       -10.7817   -0.3503   58.5681 H       1  ZINC000460972051    0.0900
     38 H38        -9.7393   -0.5263   57.1359 H       1  ZINC000460972051    0.0900
     39 H39        -8.8108   -2.3379   59.0653 H       1  ZINC000460972051    0.4200
     40 H40       -11.4039   -1.5115   60.2079 H       1  ZINC000460972051    0.1400
     41 H41       -13.5932   -0.9376   61.1784 H       1  ZINC000460972051    0.1300
     42 H42       -16.4314   -0.9292   59.9005 H       1  ZINC000460972051    0.0800
     43 H43       -16.7153   -2.6461   60.2746 H       1  ZINC000460972051    0.0700
     44 H44       -15.9118   -1.5967   61.4666 H       1  ZINC000460972051    0.0700
     45 H45       -15.5184   -3.4516   58.3215 H       1  ZINC000460972051    0.1300
     46 H46       -13.2597   -3.7172   56.0907 H       1  ZINC000460972051    0.0900
     47 H47       -12.4132   -4.9071   57.1084 H       1  ZINC000460972051    0.1000
     48 H48       -14.1899   -4.9292   57.0039 H       1  ZINC000460972051    0.0900
     49 H49       -10.4823    1.9049   57.7759 H       1  ZINC000460972051    0.1200
     50 H50        -9.9949    3.8768   56.3843 H       1  ZINC000460972051    0.1200
     51 H51        -7.6621    4.4751   55.8707 H       1  ZINC000460972051    0.1200
     52 H52        -5.8169    3.1017   56.7494 H       1  ZINC000460972051    0.1200
     53 H53        -6.3042    1.1323   58.1448 H       1  ZINC000460972051    0.1200
     54 H54       -10.8225    1.5449   61.7757 H       1  ZINC000460972051    0.1000
     55 H55       -11.5732    0.4982   63.8946 H       1  ZINC000460972051    0.0600
     56 H56       -10.3087    1.3840   64.7802 H       1  ZINC000460972051    0.0600
     57 H57       -11.6387    2.2738   64.0009 H       1  ZINC000460972051    0.0700
     58 H58        -8.7302    2.8756   61.7567 H       1  ZINC000460972051    0.0600
     59 H59        -9.9784    3.6621   62.7524 H       1  ZINC000460972051    0.0700
     60 H60        -8.6484    2.7723   63.5318 H       1  ZINC000460972051    0.0600
@<TRIPOS>BOND
     1     1     2    1
     2     1    31    1
     3     1    32    1
     4     1    33    1
     5     2     3    1
     6     2    34    1
     7     2    35    1
     8     3     4   am
     9     3    28    1
    10     4     5    2
    11     4     6   am
    12     6     7    1
    13     6    36    1
    14     7     8    1
    15     7     9    1
    16     7    22    1
    17     9    10    1
    18     9    37    1
    19     9    38    1
    20    10    11   am
    21    10    39    1
    22    11    12    2
    23    11    13    2
    24    11    14    1
    25    14    20   ar
    26    14    15   ar
    27    15    16   ar
    28    15    40    1
    29    16    17   ar
    30    16    41    1
    31    17    18    1
    32    17    19   ar
    33    18    42    1
    34    18    43    1
    35    18    44    1
    36    19    20   ar
    37    19    45    1
    38    20    21    1
    39    21    46    1
    40    21    47    1
    41    21    48    1
    42    22    27   ar
    43    22    23   ar
    44    23    24   ar
    45    23    49    1
    46    24    25   ar
    47    24    50    1
    48    25    26   ar
    49    25    51    1
    50    26    27   ar
    51    26    52    1
    52    27    53    1
    53    28    29    1
    54    28    30    1
    55    28    54    1
    56    29    55    1
    57    29    56    1
    58    29    57    1
    59    30    58    1
    60    30    59    1
    61    30    60    1
@<TRIPOS>SUBSTRUCTURE
     1 ZINC000460972051        1 TEMP              0 ****  ****    0 ROOT


##########                                Name:    ZINC000876376999
##########                DOCK_Rotatable_Bonds:                   7
##########                         Heavy_Atoms:                  24
##########                    Molecular_Weight:             358.502
##########                DOCK_Rotatable_Bonds:                   7
##########                       Formal_Charge:          -0.0299994
##########                     HBond_Acceptors:                   7
##########                        HBond_Donors:                   2
##########                         Heavy_Atoms:                  24
##########                          Grid_Score:          -29.883303
##########                     Grid_vdw_energy:          -29.856813
##########                      Grid_es_energy:           -0.026490
##########           Internal_energy_repulsive:           37.669422

@<TRIPOS>MOLECULE
ZINC000876376999
 54 56 1 0 0
SMALL
USER_CHARGES


@<TRIPOS>ATOM
      1 C1        -10.3248    1.0166   61.8708 C.3     1  ZINC000876376999   -0.1500
      2 C2         -9.0492    0.6218   61.1239 C.3     1  ZINC000876376999   -0.1100
      3 C3         -9.3553   -0.5310   60.1657 C.3     1  ZINC000876376999   -0.0700
      4 C4         -8.1086   -0.8527   59.3391 C.3     1  ZINC000876376999    0.0900
      5 O5         -7.7177    0.3040   58.5969 O.3     1  ZINC000876376999   -0.5600
      6 C6         -9.7693   -1.7664   60.9686 C.3     1  ZINC000876376999   -0.1100
      7 C7        -10.0440   -2.9297   60.0129 C.3     1  ZINC000876376999   -0.1400
      8 C8        -11.1960   -2.5540   59.0754 C.3     1  ZINC000876376999    0.1100
      9 N9        -10.8673   -1.2879   58.4062 N.am    1  ZINC000876376999   -0.6300
     10 C10       -10.9029   -1.1920   57.0624 C.2     1  ZINC000876376999    0.7100
     11 O11       -11.2091   -2.1588   56.3917 O.2     1  ZINC000876376999   -0.5800
     12 N12       -10.5990   -0.0242   56.4619 N.am    1  ZINC000876376999   -0.7500
     13 C13       -10.6377    0.0802   55.0012 C.3     1  ZINC000876376999    0.1400
     14 C14        -9.3829   -0.5727   54.4086 C.3     1  ZINC000876376999   -0.1100
     15 C15        -9.7638   -1.6921   53.4785 C.3     1  ZINC000876376999   -0.1100
     16 C16        -9.7569   -1.3539   51.9831 C.3     1  ZINC000876376999   -0.5200
     17 H17       -10.0677   -2.1899   51.3410 H       1  ZINC000876376999    0.1500
     18 C18       -10.6200   -0.0863   51.7881 C.3     1  ZINC000876376999   -0.1200
     19 C19        -9.8208    1.1769   52.0889 C.3     1  ZINC000876376999   -0.1200
     20 C20        -8.3713    0.8358   52.5046 C.3     1  ZINC000876376999   -0.5300
     21 H21        -7.6525    1.6271   52.2498 H       1  ZINC000876376999    0.1500
     22 C22        -8.3898    0.4791   53.9955 C.3     1  ZINC000876376999   -0.1000
     23 S23        -8.0606   -0.7430   51.6092 S.o2    1  ZINC000876376999    2.3700
     24 O24        -7.0947   -1.5193   52.3032 O.2     1  ZINC000876376999   -0.9300
     25 O25        -7.9246   -0.4973   50.2164 O.2     1  ZINC000876376999   -0.9300
     26 C26       -10.4994   -0.1281   59.2299 C.3     1  ZINC000876376999    0.1400
     27 H27       -11.0534    1.4107   61.1623 H       1  ZINC000876376999    0.0500
     28 H28       -10.7398    0.1406   62.3692 H       1  ZINC000876376999    0.0600
     29 H29       -10.0899    1.7797   62.6128 H       1  ZINC000876376999    0.0500
     30 H30        -8.6804    1.4769   60.5574 H       1  ZINC000876376999    0.0600
     31 H31        -8.2911    0.3068   61.8408 H       1  ZINC000876376999    0.0700
     32 H32        -7.2977   -1.1486   60.0047 H       1  ZINC000876376999    0.0500
     33 H33        -8.3297   -1.6686   58.6508 H       1  ZINC000876376999    0.0400
     34 H34        -7.4578    1.0553   59.1473 H       1  ZINC000876376999    0.3800
     35 H35        -8.9665   -2.0405   61.6531 H       1  ZINC000876376999    0.0700
     36 H36       -10.6716   -1.5436   61.5383 H       1  ZINC000876376999    0.0700
     37 H37        -9.1497   -3.1368   59.4254 H       1  ZINC000876376999    0.0700
     38 H38       -10.3163   -3.8155   60.5867 H       1  ZINC000876376999    0.0800
     39 H39       -11.3303   -3.3373   58.3295 H       1  ZINC000876376999    0.0700
     40 H40       -12.1128   -2.4349   59.6526 H       1  ZINC000876376999    0.0700
     41 H41       -10.3546    0.7471   56.9970 H       1  ZINC000876376999    0.3900
     42 H42       -11.5247   -0.4288   54.6239 H       1  ZINC000876376999    0.0800
     43 H43       -10.6713    1.1308   54.7127 H       1  ZINC000876376999    0.0700
     44 H44        -8.9071   -1.0843   55.2924 H       1  ZINC000876376999    0.0900
     45 H45        -9.0828   -2.5444   53.6480 H       1  ZINC000876376999    0.0900
     46 H46       -10.7693   -2.0575   53.7506 H       1  ZINC000876376999    0.0900
     47 H47       -10.9541   -0.0462   50.7467 H       1  ZINC000876376999    0.0800
     48 H48       -11.4967   -0.1315   52.4276 H       1  ZINC000876376999    0.0900
     49 H49        -9.7907    1.7926   51.1847 H       1  ZINC000876376999    0.0800
     50 H50       -10.3087    1.7460   52.8749 H       1  ZINC000876376999    0.0900
     51 H51        -8.5815    1.3997   54.5739 H       1  ZINC000876376999    0.0900
     52 H52        -7.3777    0.1497   54.2895 H       1  ZINC000876376999    0.0900
     53 H53       -11.3595    0.1887   59.8198 H       1  ZINC000876376999    0.0600
     54 H54       -10.1742    0.6890   58.5861 H       1  ZINC000876376999    0.1000
@<TRIPOS>BOND
     1     1     2    1
     2     1    27    1
     3     1    28    1
     4     1    29    1
     5     2     3    1
     6     2    30    1
     7     2    31    1
     8     3    26    1
     9     3     4    1
    10     3     6    1
    11     4     5    1
    12     4    32    1
    13     4    33    1
    14     5    34    1
    15     6     7    1
    16     6    35    1
    17     6    36    1
    18     7     8    1
    19     7    37    1
    20     7    38    1
    21     8     9    1
    22     8    39    1
    23     8    40    1
    24     9    10   am
    25     9    26    1
    26    10    11    2
    27    10    12   am
    28    12    13    1
    29    12    41    1
    30    13    14    1
    31    13    42    1
    32    13    43    1
    33    14    22    1
    34    14    15    1
    35    14    44    1
    36    15    16    1
    37    15    45    1
    38    15    46    1
    39    16    17    1
    40    16    23    1
    41    16    18    1
    42    18    19    1
    43    18    47    1
    44    18    48    1
    45    19    20    1
    46    19    49    1
    47    19    50    1
    48    20    21    1
    49    20    22    1
    50    20    23    1
    51    22    51    1
    52    22    52    1
    53    23    24    2
    54    23    25    2
    55    26    53    1
    56    26    54    1
@<TRIPOS>SUBSTRUCTURE
     1 ZINC000876376999        1 TEMP              0 ****  ****    0 ROOT


##########                                Name:    ZINC000623581528
##########                DOCK_Rotatable_Bonds:                   5
##########                         Heavy_Atoms:                  26
##########                    Molecular_Weight:             355.369
##########                DOCK_Rotatable_Bonds:                   5
##########                       Formal_Charge:        -4.47035e-07
##########                     HBond_Acceptors:                   7
##########                        HBond_Donors:                   2
##########                         Heavy_Atoms:                  26
##########                          Grid_Score:          -29.878685
##########                     Grid_vdw_energy:          -28.484564
##########                      Grid_es_energy:           -1.394121
##########           Internal_energy_repulsive:            5.253246

@<TRIPOS>MOLECULE
ZINC000623581528
 44 47 1 0 0
SMALL
USER_CHARGES


@<TRIPOS>ATOM
      1 C1          0.5951   -0.9239   49.1604 C.3     1  ZINC000623581528    0.1000
      2 N2         -0.6022   -0.2675   48.6293 N.am    1  ZINC000623581528   -0.5500
      3 C3         -1.3164   -0.6600   47.5558 C.2     1  ZINC000623581528    0.6300
      4 O4         -1.0683   -1.6280   46.8631 O.2     1  ZINC000623581528   -0.4800
      5 O5         -2.3441    0.1833   47.3699 O.3     1  ZINC000623581528   -0.2300
      6 C6         -2.3118    1.1426   48.3270 C.ar    1  ZINC000623581528    0.0400
      7 C7         -3.1191    2.2361   48.5968 C.ar    1  ZINC000623581528   -0.0800
      8 C8         -2.8309    3.0575   49.6697 C.ar    1  ZINC000623581528   -0.0900
      9 C9         -1.7386    2.7941   50.4772 C.ar    1  ZINC000623581528   -0.0900
     10 C10        -1.4326    3.6960   51.6451 C.3     1  ZINC000623581528    0.1800
     11 N11        -2.0950    3.1813   52.8462 N.am    1  ZINC000623581528   -0.7400
     12 C12        -3.3318    3.6086   53.1691 C.2     1  ZINC000623581528    0.7100
     13 O13        -3.8973    4.4222   52.4644 O.2     1  ZINC000623581528   -0.5800
     14 N14        -3.9418    3.1339   54.2732 N.am    1  ZINC000623581528   -0.7300
     15 C15        -5.2870    3.5969   54.6232 C.3     1  ZINC000623581528    0.2000
     16 H16        -5.5655    4.4499   54.0046 H       1  ZINC000623581528    0.1000
     17 C17        -5.3507    3.9760   56.1181 C.3     1  ZINC000623581528   -0.1300
     18 C18        -5.8266    2.6619   56.7731 C.3     1  ZINC000623581528   -0.0800
     19 C19        -6.5990    1.9372   55.6917 C.ar    1  ZINC000623581528   -0.1000
     20 C20        -7.5014    0.8907   55.7823 C.ar    1  ZINC000623581528   -0.0800
     21 C21        -8.0933    0.3819   54.6429 C.ar    1  ZINC000623581528   -0.1400
     22 C22        -7.7835    0.9193   53.4053 C.ar    1  ZINC000623581528    0.0900
     23 F23        -8.3610    0.4242   52.2888 F       1  ZINC000623581528   -0.1400
     24 C24        -6.8815    1.9646   53.3138 C.ar    1  ZINC000623581528   -0.1200
     25 C25        -6.2892    2.4754   54.4535 C.ar    1  ZINC000623581528   -0.0900
     26 C26        -0.9278    1.7061   50.2160 C.ar    1  ZINC000623581528   -0.0800
     27 C27        -1.2144    0.8741   49.1456 C.ar    1  ZINC000623581528    0.0700
     28 H28         0.3024   -1.6751   49.8940 H       1  ZINC000623581528    0.0800
     29 H29         1.1380   -1.4035   48.3460 H       1  ZINC000623581528    0.0900
     30 H30         1.2356   -0.1814   49.6364 H       1  ZINC000623581528    0.0900
     31 H31        -3.9723    2.4462   47.9690 H       1  ZINC000623581528    0.1500
     32 H32        -3.4609    3.9094   49.8789 H       1  ZINC000623581528    0.1500
     33 H33        -0.3554    3.7258   51.8087 H       1  ZINC000623581528    0.0800
     34 H34        -1.7958    4.7016   51.4325 H       1  ZINC000623581528    0.0800
     35 H35        -1.6434    2.5331   53.4090 H       1  ZINC000623581528    0.4000
     36 H36        -3.4903    2.4857   54.8361 H       1  ZINC000623581528    0.4000
     37 H37        -4.3654    4.2588   56.4884 H       1  ZINC000623581528    0.0900
     38 H38        -6.0726    4.7754   56.2846 H       1  ZINC000623581528    0.0900
     39 H39        -4.9709    2.0660   57.0906 H       1  ZINC000623581528    0.0800
     40 H40        -6.4754    2.8761   57.6225 H       1  ZINC000623581528    0.0800
     41 H41        -7.7436    0.4711   56.7474 H       1  ZINC000623581528    0.1300
     42 H42        -8.7966   -0.4342   54.7173 H       1  ZINC000623581528    0.1400
     43 H43        -6.6395    2.3841   52.3485 H       1  ZINC000623581528    0.1400
     44 H44        -0.0757    1.5020   50.8474 H       1  ZINC000623581528    0.1400
@<TRIPOS>BOND
     1     1     2    1
     2     1    28    1
     3     1    29    1
     4     1    30    1
     5     2    27    1
     6     2     3   am
     7     3     4    2
     8     3     5    1
     9     5     6    1
    10     6    27   ar
    11     6     7   ar
    12     7     8   ar
    13     7    31    1
    14     8     9   ar
    15     8    32    1
    16     9    10    1
    17     9    26   ar
    18    10    11    1
    19    10    33    1
    20    10    34    1
    21    11    12   am
    22    11    35    1
    23    12    13    2
    24    12    14   am
    25    14    15    1
    26    14    36    1
    27    15    16    1
    28    15    25    1
    29    15    17    1
    30    17    18    1
    31    17    37    1
    32    17    38    1
    33    18    19    1
    34    18    39    1
    35    18    40    1
    36    19    25   ar
    37    19    20   ar
    38    20    21   ar
    39    20    41    1
    40    21    22   ar
    41    21    42    1
    42    22    23    1
    43    22    24   ar
    44    24    25   ar
    45    24    43    1
    46    26    27   ar
    47    26    44    1
@<TRIPOS>SUBSTRUCTURE
     1 ZINC000623581528        1 TEMP              0 ****  ****    0 ROOT


##########                                Name:    ZINC000564088286
##########                DOCK_Rotatable_Bonds:                   6
##########                         Heavy_Atoms:                  25
##########                    Molecular_Weight:             398.934
##########                DOCK_Rotatable_Bonds:                   6
##########                       Formal_Charge:               -0.05
##########                     HBond_Acceptors:                   8
##########                        HBond_Donors:                   1
##########                         Heavy_Atoms:                  25
##########                          Grid_Score:          -29.878222
##########                     Grid_vdw_energy:          -29.816647
##########                      Grid_es_energy:           -0.061575
##########           Internal_energy_repulsive:           14.184700

@<TRIPOS>MOLECULE
ZINC000564088286
 44 46 1 0 0
SMALL
USER_CHARGES


@<TRIPOS>ATOM
      1 C1        -13.8656   -4.6389   56.5203 C.3     1  ZINC000564088286   -0.1600
      2 C2        -13.3814   -3.3557   57.1987 C.3     1  ZINC000564088286    0.1100
      3 N3        -12.0397   -3.5695   57.7467 N.am    1  ZINC000564088286   -1.1200
      4 S4        -10.9789   -2.3026   57.8569 S.o2    1  ZINC000564088286    2.7000
      5 O5        -11.6536   -1.2753   58.5702 O.2     1  ZINC000564088286   -0.9600
      6 O6         -9.7379   -2.8537   58.2761 O.2     1  ZINC000564088286   -0.9600
      7 C7        -10.7256   -1.6908   56.2242 C.ar    1  ZINC000564088286   -0.6800
      8 C8        -10.1560   -2.5039   55.2621 C.ar    1  ZINC000564088286   -0.0200
      9 C9         -9.9572   -2.0239   53.9810 C.ar    1  ZINC000564088286   -0.1300
     10 C10       -10.3284   -0.7310   53.6619 C.ar    1  ZINC000564088286   -0.0100
     11 C11       -10.1112   -0.2077   52.2656 C.3     1  ZINC000564088286   -0.1100
     12 C12        -8.7684   -0.6684   51.7597 C.2     1  ZINC000564088286    0.5200
     13 O13        -8.7050   -1.4773   50.8583 O.2     1  ZINC000564088286   -0.5200
     14 N14        -7.6381   -0.1814   52.3089 N.am    1  ZINC000564088286   -0.6200
     15 C15        -6.3177   -0.6176   51.8302 C.3     1  ZINC000564088286    0.1200
     16 C16        -5.6036    0.5848   51.2052 C.3     1  ZINC000564088286   -0.0700
     17 C17        -5.7598    1.7826   52.1179 C.2     1  ZINC000564088286   -0.1600
     18 C18        -6.6830    1.8990   53.0907 C.2     1  ZINC000564088286   -0.1200
     19 C19        -6.6218    3.1054   53.7820 C.2     1  ZINC000564088286   -0.1100
     20 C20        -5.6693    3.9465   53.3880 C.2     1  ZINC000564088286   -0.1500
     21 Cl21       -5.3686    5.5116   54.0761 Cl      1  ZINC000564088286   -0.0100
     22 S22        -4.7619    3.2302   52.0647 S.3     1  ZINC000564088286    0.1600
     23 C23        -7.6925    0.8042   53.3978 C.3     1  ZINC000564088286    0.1700
     24 C24       -10.8991    0.0815   54.6237 C.ar    1  ZINC000564088286   -0.1300
     25 C25       -11.1015   -0.3998   55.9037 C.ar    1  ZINC000564088286   -0.0200
     26 H26       -13.1818   -4.9038   55.7139 H       1  ZINC000564088286    0.0600
     27 H27       -13.8961   -5.4469   57.2511 H       1  ZINC000564088286    0.0600
     28 H28       -14.8639   -4.4798   56.1126 H       1  ZINC000564088286    0.0700
     29 H29       -13.3509   -2.5476   56.4678 H       1  ZINC000564088286    0.0800
     30 H30       -14.0653   -3.0907   58.0050 H       1  ZINC000564088286    0.0700
     31 H31       -11.7727   -4.4530   58.0450 H       1  ZINC000564088286    0.4200
     32 H32        -9.8661   -3.5139   55.5113 H       1  ZINC000564088286    0.1400
     33 H33        -9.5117   -2.6589   53.2296 H       1  ZINC000564088286    0.1300
     34 H34       -10.8956   -0.5855   51.6098 H       1  ZINC000564088286    0.1100
     35 H35       -10.1407    0.8819   52.2772 H       1  ZINC000564088286    0.1100
     36 H36        -5.7317   -0.9966   52.6675 H       1  ZINC000564088286    0.0800
     37 H37        -6.4400   -1.4004   51.0816 H       1  ZINC000564088286    0.1100
     38 H38        -4.5449    0.3563   51.0817 H       1  ZINC000564088286    0.0900
     39 H39        -6.0454    0.8067   50.2338 H       1  ZINC000564088286    0.0900
     40 H40        -7.3031    3.3434   54.5855 H       1  ZINC000564088286    0.1500
     41 H41        -8.6930    1.2320   53.4620 H       1  ZINC000564088286    0.1000
     42 H42        -7.4364    0.3195   54.3399 H       1  ZINC000564088286    0.0900
     43 H43       -11.1894    1.0913   54.3742 H       1  ZINC000564088286    0.1300
     44 H44       -11.5473    0.2350   56.6551 H       1  ZINC000564088286    0.1400
@<TRIPOS>BOND
     1     1     2    1
     2     1    26    1
     3     1    27    1
     4     1    28    1
     5     2     3    1
     6     2    29    1
     7     2    30    1
     8     3     4   am
     9     3    31    1
    10     4     5    2
    11     4     6    2
    12     4     7    1
    13     7    25   ar
    14     7     8   ar
    15     8     9   ar
    16     8    32    1
    17     9    10   ar
    18     9    33    1
    19    10    11    1
    20    10    24   ar
    21    11    12    1
    22    11    34    1
    23    11    35    1
    24    12    13    2
    25    12    14   am
    26    14    23    1
    27    14    15    1
    28    15    16    1
    29    15    36    1
    30    15    37    1
    31    16    17    1
    32    16    38    1
    33    16    39    1
    34    17    22    1
    35    17    18    2
    36    18    19    1
    37    18    23    1
    38    19    20    2
    39    19    40    1
    40    20    21    1
    41    20    22    1
    42    23    41    1
    43    23    42    1
    44    24    25   ar
    45    24    43    1
    46    25    44    1
@<TRIPOS>SUBSTRUCTURE
     1 ZINC000564088286        1 TEMP              0 ****  ****    0 ROOT


##########                                Name:    ZINC001291841503
##########                DOCK_Rotatable_Bonds:                   7
##########                         Heavy_Atoms:                  28
##########                    Molecular_Weight:             397.544
##########                DOCK_Rotatable_Bonds:                   7
##########                       Formal_Charge:         -0.00999964
##########                     HBond_Acceptors:                   7
##########                        HBond_Donors:                   0
##########                         Heavy_Atoms:                  28
##########                          Grid_Score:          -29.860970
##########                     Grid_vdw_energy:          -28.962646
##########                      Grid_es_energy:           -0.898324
##########           Internal_energy_repulsive:           14.283658

@<TRIPOS>MOLECULE
ZINC001291841503
 55 58 1 0 0
SMALL
USER_CHARGES


@<TRIPOS>ATOM
      1 C1        -10.0446   -2.1983   60.6430 C.3     1  ZINC001291841503   -0.1500
      2 C2        -10.1987   -2.7381   59.2196 C.3     1  ZINC001291841503   -0.1100
      3 C3        -11.0573   -1.7740   58.3986 C.3     1  ZINC001291841503    0.0500
      4 H4        -10.9472   -0.7637   58.7927 H       1  ZINC001291841503    0.0900
      5 C5        -10.6098   -1.8035   56.9599 C.2     1  ZINC001291841503    0.2000
      6 N6        -10.3313   -2.8663   56.2595 N.2     1  ZINC001291841503   -0.2700
      7 N7         -9.9819   -2.5305   55.0691 N.2     1  ZINC001291841503   -0.3100
      8 C8        -10.0191   -1.2248   54.9451 C.2     1  ZINC001291841503    0.3600
      9 N9         -9.7089   -0.4960   53.8079 N.3     1  ZINC001291841503   -0.4500
     10 C10        -8.3385   -0.7773   53.3599 C.3     1  ZINC001291841503    0.0200
     11 C11       -10.6776   -0.7570   52.7349 C.3     1  ZINC001291841503    0.0700
     12 H12       -10.6016   -1.7876   52.3882 H       1  ZINC001291841503    0.0800
     13 C13       -12.1228   -0.4372   53.2051 C.3     1  ZINC001291841503   -0.1400
     14 C14       -12.7967   -0.0735   51.8582 C.3     1  ZINC001291841503    0.0500
     15 O15       -11.7866    0.6204   51.1087 O.3     1  ZINC001291841503   -0.3800
     16 C16       -10.4820    0.2318   51.5655 C.3     1  ZINC001291841503    0.0600
     17 N17       -10.4265   -0.7203   56.1457 N.pl3   1  ZINC001291841503   -0.4700
     18 C18       -10.6183    0.6899   56.4934 C.3     1  ZINC001291841503    0.1900
     19 C19        -9.2894    1.3048   56.8495 C.2     1  ZINC001291841503   -0.2700
     20 C20        -8.7382    1.3354   58.0666 C.2     1  ZINC001291841503    0.0800
     21 N21        -7.5649    1.9332   58.1203 N.2     1  ZINC001291841503   -0.4800
     22 C22        -7.0959    2.4085   57.0163 C.2     1  ZINC001291841503    0.0500
     23 C23        -5.7764    3.1229   56.8764 C.3     1  ZINC001291841503   -0.0800
     24 S24        -8.1846    2.1040   55.7337 S.3     1  ZINC001291841503    0.1800
     25 C25       -12.5027   -2.1915   58.4837 C.ar    1  ZINC001291841503   -0.0900
     26 C26       -12.9093   -3.3915   57.9309 C.ar    1  ZINC001291841503   -0.0900
     27 C27       -14.2352   -3.7745   58.0090 C.ar    1  ZINC001291841503   -0.1200
     28 C28       -15.1545   -2.9579   58.6404 C.ar    1  ZINC001291841503   -0.1200
     29 C29       -14.7479   -1.7583   59.1941 C.ar    1  ZINC001291841503   -0.1200
     30 C30       -13.4211   -1.3773   59.1198 C.ar    1  ZINC001291841503   -0.1100
     31 H31        -9.5635   -1.2207   60.6106 H       1  ZINC001291841503    0.0500
     32 H32       -11.0276   -2.1042   61.1043 H       1  ZINC001291841503    0.0500
     33 H33        -9.4329   -2.8851   61.2279 H       1  ZINC001291841503    0.0600
     34 H34        -9.2157   -2.8321   58.7583 H       1  ZINC001291841503    0.0800
     35 H35       -10.6798   -3.7157   59.2520 H       1  ZINC001291841503    0.0800
     36 H36        -8.2661   -1.8179   53.0433 H       1  ZINC001291841503    0.0500
     37 H37        -8.0886   -0.1249   52.5232 H       1  ZINC001291841503    0.0900
     38 H38        -7.6438   -0.5980   54.1805 H       1  ZINC001291841503    0.0700
     39 H39       -12.5920   -1.3119   53.6556 H       1  ZINC001291841503    0.0900
     40 H40       -12.1343    0.4095   53.8914 H       1  ZINC001291841503    0.0800
     41 H41       -13.1037   -0.9777   51.3324 H       1  ZINC001291841503    0.0700
     42 H42       -13.6552    0.5763   52.0279 H       1  ZINC001291841503    0.0900
     43 H43        -9.9358    1.1085   51.9136 H       1  ZINC001291841503    0.0800
     44 H44        -9.9342   -0.2488   50.7549 H       1  ZINC001291841503    0.0700
     45 H45       -11.0470    1.2189   55.6422 H       1  ZINC001291841503    0.1100
     46 H46       -11.2936    0.7653   57.3456 H       1  ZINC001291841503    0.1100
     47 H47        -9.2150    0.9053   58.9349 H       1  ZINC001291841503    0.1700
     48 H48        -4.9927    2.3985   56.6548 H       1  ZINC001291841503    0.0900
     49 H49        -5.8401    3.8486   56.0657 H       1  ZINC001291841503    0.0800
     50 H50        -5.5417    3.6384   57.8078 H       1  ZINC001291841503    0.0900
     51 H51       -12.1910   -4.0296   57.4376 H       1  ZINC001291841503    0.1300
     52 H52       -14.5528   -4.7118   57.5764 H       1  ZINC001291841503    0.1200
     53 H53       -16.1905   -3.2568   58.7008 H       1  ZINC001291841503    0.1200
     54 H54       -15.4662   -1.1201   59.6871 H       1  ZINC001291841503    0.1200
     55 H55       -13.1034   -0.4401   59.5524 H       1  ZINC001291841503    0.1200
@<TRIPOS>BOND
     1     1     2    1
     2     1    31    1
     3     1    32    1
     4     1    33    1
     5     2     3    1
     6     2    34    1
     7     2    35    1
     8     3     4    1
     9     3     5    1
    10     3    25    1
    11     5    17    1
    12     5     6    2
    13     6     7    1
    14     7     8    2
    15     8     9    1
    16     8    17    1
    17     9    10    1
    18     9    11    1
    19    10    36    1
    20    10    37    1
    21    10    38    1
    22    11    12    1
    23    11    16    1
    24    11    13    1
    25    13    14    1
    26    13    39    1
    27    13    40    1
    28    14    15    1
    29    14    41    1
    30    14    42    1
    31    15    16    1
    32    16    43    1
    33    16    44    1
    34    17    18    1
    35    18    19    1
    36    18    45    1
    37    18    46    1
    38    19    24    1
    39    19    20    2
    40    20    21    1
    41    20    47    1
    42    21    22    2
    43    22    23    1
    44    22    24    1
    45    23    48    1
    46    23    49    1
    47    23    50    1
    48    25    30   ar
    49    25    26   ar
    50    26    27   ar
    51    26    51    1
    52    27    28   ar
    53    27    52    1
    54    28    29   ar
    55    28    53    1
    56    29    30   ar
    57    29    54    1
    58    30    55    1
@<TRIPOS>SUBSTRUCTURE
     1 ZINC001291841503        1 TEMP              0 ****  ****    0 ROOT


##########                                Name:    ZINC001067316277
##########                DOCK_Rotatable_Bonds:                   5
##########                         Heavy_Atoms:                  24
##########                    Molecular_Weight:             345.469
##########                DOCK_Rotatable_Bonds:                   5
##########                       Formal_Charge:          -0.0200007
##########                     HBond_Acceptors:                   7
##########                        HBond_Donors:                   2
##########                         Heavy_Atoms:                  24
##########                          Grid_Score:          -29.844385
##########                     Grid_vdw_energy:          -28.733282
##########                      Grid_es_energy:           -1.111102
##########           Internal_energy_repulsive:           11.480769

@<TRIPOS>MOLECULE
ZINC001067316277
 47 49 1 0 0
SMALL
USER_CHARGES


@<TRIPOS>ATOM
      1 C1         -5.9919    0.5847   51.2055 C.3     1  ZINC001067316277   -0.1400
      2 S2         -5.3651    2.0230   52.1081 S.3     1  ZINC001067316277   -0.0400
      3 C3         -3.7371    2.1172   51.4409 C.ar    1  ZINC001067316277    0.1800
      4 C4         -2.6839    2.6189   52.2097 C.ar    1  ZINC001067316277   -0.2400
      5 C5         -1.4247    2.6741   51.6455 C.ar    1  ZINC001067316277    0.1900
      6 N6         -1.2527    2.2530   50.4009 N.ar    1  ZINC001067316277   -0.5600
      7 C7         -2.2697    1.7816   49.6943 C.ar    1  ZINC001067316277    0.5100
      8 N8         -2.0486    1.3515   48.3976 N.3     1  ZINC001067316277   -0.4600
      9 C9         -2.3903    2.4014   47.4295 C.3     1  ZINC001067316277    0.0700
     10 C10        -2.2730    1.8448   46.0087 C.3     1  ZINC001067316277   -0.1300
     11 C11        -0.8415    1.3547   45.7743 C.3     1  ZINC001067316277    0.1600
     12 H12        -0.1508    2.1936   45.8595 H       1  ZINC001067316277    0.0900
     13 N13        -0.7376    0.7690   44.4355 N.am    1  ZINC001067316277   -0.7200
     14 C14         0.3819    0.9479   43.7067 C.2     1  ZINC001067316277    0.5900
     15 O15         1.3059    1.5972   44.1602 O.2     1  ZINC001067316277   -0.5300
     16 C16         0.4867    0.3599   42.3671 C.2     1  ZINC001067316277   -0.0600
     17 C17         1.5660    0.4603   41.5152 C.2     1  ZINC001067316277   -0.1000
     18 C18         1.2395   -0.2457   40.3533 C.2     1  ZINC001067316277   -0.2100
     19 C19        -0.0061   -0.7538   40.5121 C.2     1  ZINC001067316277    0.0300
     20 N20        -0.4724   -0.3976   41.7338 N.pl3   1  ZINC001067316277   -0.5400
     21 C21        -0.4940    0.2970   46.8255 C.3     1  ZINC001067316277   -0.0700
     22 C22        -1.4289   -0.9041   46.6701 C.3     1  ZINC001067316277   -0.1400
     23 C23         0.9551   -0.1556   46.6350 C.3     1  ZINC001067316277   -0.1400
     24 C24        -0.6628    0.8985   48.2225 C.3     1  ZINC001067316277    0.0800
     25 N25        -3.4914    1.7066   50.1999 N.ar    1  ZINC001067316277   -0.5400
     26 H26        -5.9629    0.7868   50.1348 H       1  ZINC001067316277    0.0900
     27 H27        -5.3710   -0.2830   51.4284 H       1  ZINC001067316277    0.0900
     28 H28        -7.0192    0.3842   51.5098 H       1  ZINC001067316277    0.1000
     29 H29        -2.8508    2.9562   53.2220 H       1  ZINC001067316277    0.1500
     30 H30        -0.5889    3.0568   52.2125 H       1  ZINC001067316277    0.1700
     31 H31        -3.4121    2.7381   47.6044 H       1  ZINC001067316277    0.1000
     32 H32        -1.7060    3.2415   47.5481 H       1  ZINC001067316277    0.0500
     33 H33        -2.9672    1.0135   45.8852 H       1  ZINC001067316277    0.0800
     34 H34        -2.5116    2.6288   45.2900 H       1  ZINC001067316277    0.0800
     35 H35        -1.4746    0.2524   44.0736 H       1  ZINC001067316277    0.3900
     36 H36         2.4896    0.9856   41.7087 H       1  ZINC001067316277    0.1500
     37 H37         1.8684   -0.3646   39.4834 H       1  ZINC001067316277    0.1500
     38 H38        -0.5392   -1.3489   39.7852 H       1  ZINC001067316277    0.1700
     39 H39        -1.3399   -0.6324   42.0988 H       1  ZINC001067316277    0.4100
     40 H40        -1.3108   -1.3299   45.6737 H       1  ZINC001067316277    0.0500
     41 H41        -1.1811   -1.6567   47.4185 H       1  ZINC001067316277    0.0600
     42 H42        -2.4609   -0.5813   46.8072 H       1  ZINC001067316277    0.0700
     43 H43         1.6207    0.7002   46.7473 H       1  ZINC001067316277    0.0600
     44 H44         1.2018   -0.9086   47.3835 H       1  ZINC001067316277    0.0600
     45 H45         1.0749   -0.5810   45.6386 H       1  ZINC001067316277    0.0600
     46 H46         0.0135    1.7455   48.3374 H       1  ZINC001067316277    0.0600
     47 H47        -0.4299    0.1436   48.9735 H       1  ZINC001067316277    0.1000
@<TRIPOS>BOND
     1     1     2    1
     2     1    26    1
     3     1    27    1
     4     1    28    1
     5     2     3    1
     6     3    25   ar
     7     3     4   ar
     8     4     5   ar
     9     4    29    1
    10     5     6   ar
    11     5    30    1
    12     6     7   ar
    13     7     8    1
    14     7    25   ar
    15     8    24    1
    16     8     9    1
    17     9    10    1
    18     9    31    1
    19     9    32    1
    20    10    11    1
    21    10    33    1
    22    10    34    1
    23    11    12    1
    24    11    13    1
    25    11    21    1
    26    13    14   am
    27    13    35    1
    28    14    15    2
    29    14    16    1
    30    16    20    1
    31    16    17    2
    32    17    18    1
    33    17    36    1
    34    18    19    2
    35    18    37    1
    36    19    20    1
    37    19    38    1
    38    20    39    1
    39    21    22    1
    40    21    23    1
    41    21    24    1
    42    22    40    1
    43    22    41    1
    44    22    42    1
    45    23    43    1
    46    23    44    1
    47    23    45    1
    48    24    46    1
    49    24    47    1
@<TRIPOS>SUBSTRUCTURE
     1 ZINC001067316277        1 TEMP              0 ****  ****    0 ROOT


##########                                Name:    ZINC000182378855
##########                DOCK_Rotatable_Bonds:                   8
##########                         Heavy_Atoms:                  27
##########                    Molecular_Weight:              394.83
##########                DOCK_Rotatable_Bonds:                   8
##########                       Formal_Charge:          -0.0200001
##########                     HBond_Acceptors:                   8
##########                        HBond_Donors:                   1
##########                         Heavy_Atoms:                  27
##########                          Grid_Score:          -29.822575
##########                     Grid_vdw_energy:          -29.924845
##########                      Grid_es_energy:            0.102271
##########           Internal_energy_repulsive:           15.952702

@<TRIPOS>MOLECULE
ZINC000182378855
 47 49 1 0 0
SMALL
USER_CHARGES


@<TRIPOS>ATOM
      1 C1         -1.2790   -2.0887   47.4645 C.3     1  ZINC000182378855    0.0300
      2 O2         -0.2484   -1.3566   46.7981 O.3     1  ZINC000182378855   -0.3900
      3 C3          0.9527   -1.2193   47.5600 C.3     1  ZINC000182378855    0.0600
      4 C4          0.7107   -0.2573   48.7248 C.3     1  ZINC000182378855    0.0700
      5 O5          1.9521    0.0286   49.3724 O.3     1  ZINC000182378855   -0.2900
      6 C6          1.9229    0.9215   50.3937 C.ar    1  ZINC000182378855    0.3300
      7 C7          0.7455    1.6001   50.6785 C.ar    1  ZINC000182378855   -0.1300
      8 C8          0.7313    2.5157   51.7324 C.ar    1  ZINC000182378855   -0.0600
      9 C9         -0.5016    3.2631   52.0742 C.2     1  ZINC000182378855    0.5600
     10 O10        -0.5152    4.0051   53.0363 O.2     1  ZINC000182378855   -0.5200
     11 N11        -1.6078    3.1199   51.3179 N.am    1  ZINC000182378855   -0.7100
     12 C12        -2.8263    3.8603   51.6547 C.3     1  ZINC000182378855    0.1200
     13 H13        -2.6045    4.9193   51.7862 H       1  ZINC000182378855    0.1100
     14 C14        -3.4766    3.2808   52.9310 C.3     1  ZINC000182378855   -0.1700
     15 C15        -4.8665    2.7998   52.4588 C.3     1  ZINC000182378855    0.0400
     16 O16        -4.7150    2.5685   51.0412 O.3     1  ZINC000182378855   -0.3600
     17 C17        -3.9003    3.6607   50.5625 C.3     1  ZINC000182378855    0.1100
     18 H18        -4.5019    4.5631   50.4525 H       1  ZINC000182378855    0.1000
     19 C19        -3.2534    3.2970   49.2509 C.ar    1  ZINC000182378855   -0.0500
     20 C20        -3.2470    1.9820   48.8252 C.ar    1  ZINC000182378855   -0.1100
     21 C21        -2.6589    1.6472   47.6195 C.ar    1  ZINC000182378855   -0.0800
     22 C22        -2.0666    2.6264   46.8434 C.ar    1  ZINC000182378855   -0.0700
     23 Cl23       -1.3224    2.2053   45.3326 Cl      1  ZINC000182378855   -0.0400
     24 C24        -2.0677    3.9442   47.2724 C.ar    1  ZINC000182378855    0.1200
     25 F25        -1.4898    4.9023   46.5152 F       1  ZINC000182378855   -0.1200
     26 C26        -2.6619    4.2780   48.4770 C.ar    1  ZINC000182378855   -0.1300
     27 C27         1.9125    2.7082   52.4575 C.ar    1  ZINC000182378855   -0.1900
     28 C28         3.0396    1.9924   52.1081 C.ar    1  ZINC000182378855    0.1400
     29 N29         3.0143    1.1314   51.1094 N.ar    1  ZINC000182378855   -0.5200
     30 H30        -1.5429   -1.5815   48.3925 H       1  ZINC000182378855    0.0400
     31 H31        -2.1565   -2.1485   46.8208 H       1  ZINC000182378855    0.0900
     32 H32        -0.9234   -3.0945   47.6885 H       1  ZINC000182378855    0.0400
     33 H33         1.2497   -2.1933   47.9489 H       1  ZINC000182378855    0.0600
     34 H34         1.7444   -0.8258   46.9224 H       1  ZINC000182378855    0.0700
     35 H35         0.2761    0.6684   48.3474 H       1  ZINC000182378855    0.0800
     36 H36         0.0259   -0.7157   49.4384 H       1  ZINC000182378855    0.0800
     37 H37        -0.1451    1.4227   50.0939 H       1  ZINC000182378855    0.1600
     38 H38        -1.5973    2.5267   50.5506 H       1  ZINC000182378855    0.4000
     39 H39        -2.8914    2.4435   53.3112 H       1  ZINC000182378855    0.0900
     40 H40        -3.5784    4.0539   53.6925 H       1  ZINC000182378855    0.0900
     41 H41        -5.1408    1.8752   52.9668 H       1  ZINC000182378855    0.1000
     42 H42        -5.6166    3.5692   52.6414 H       1  ZINC000182378855    0.0700
     43 H43        -3.7053    1.2159   49.4332 H       1  ZINC000182378855    0.1500
     44 H44        -2.6584    0.6201   47.2859 H       1  ZINC000182378855    0.1500
     45 H45        -2.6638    5.3047   48.8122 H       1  ZINC000182378855    0.1500
     46 H46         1.9416    3.4075   53.2800 H       1  ZINC000182378855    0.1400
     47 H47         3.9545    2.1361   52.6637 H       1  ZINC000182378855    0.1700
@<TRIPOS>BOND
     1     1     2    1
     2     1    30    1
     3     1    31    1
     4     1    32    1
     5     2     3    1
     6     3     4    1
     7     3    33    1
     8     3    34    1
     9     4     5    1
    10     4    35    1
    11     4    36    1
    12     5     6    1
    13     6    29   ar
    14     6     7   ar
    15     7     8   ar
    16     7    37    1
    17     8     9    1
    18     8    27   ar
    19     9    10    2
    20     9    11   am
    21    11    12    1
    22    11    38    1
    23    12    13    1
    24    12    17    1
    25    12    14    1
    26    14    15    1
    27    14    39    1
    28    14    40    1
    29    15    16    1
    30    15    41    1
    31    15    42    1
    32    16    17    1
    33    17    18    1
    34    17    19    1
    35    19    26   ar
    36    19    20   ar
    37    20    21   ar
    38    20    43    1
    39    21    22   ar
    40    21    44    1
    41    22    23    1
    42    22    24   ar
    43    24    25    1
    44    24    26   ar
    45    26    45    1
    46    27    28   ar
    47    27    46    1
    48    28    29   ar
    49    28    47    1
@<TRIPOS>SUBSTRUCTURE
     1 ZINC000182378855        1 TEMP              0 ****  ****    0 ROOT


##########                                Name:    ZINC000851838607
##########                DOCK_Rotatable_Bonds:                  12
##########                         Heavy_Atoms:                  23
##########                    Molecular_Weight:             352.495
##########                DOCK_Rotatable_Bonds:                  12
##########                       Formal_Charge:          0.00999896
##########                     HBond_Acceptors:                   8
##########                        HBond_Donors:                   2
##########                         Heavy_Atoms:                  23
##########                          Grid_Score:          -29.751177
##########                     Grid_vdw_energy:          -30.478130
##########                      Grid_es_energy:            0.726953
##########           Internal_energy_repulsive:           20.247066

@<TRIPOS>MOLECULE
ZINC000851838607
 55 54 1 0 0
SMALL
USER_CHARGES


@<TRIPOS>ATOM
      1 C1         -7.8220   -0.0831   63.5336 C.3     1  ZINC000851838607    0.0300
      2 O2         -8.1144   -0.4265   62.1777 O.3     1  ZINC000851838607   -0.3800
      3 C3         -9.4302   -0.0614   61.7563 C.3     1  ZINC000851838607    0.0800
      4 C4         -9.6256   -0.4594   60.2920 C.3     1  ZINC000851838607   -0.6000
      5 H5        -10.6176   -0.1518   59.9612 H       1  ZINC000851838607    0.1400
      6 C6         -8.5647    0.2286   59.4305 C.3     1  ZINC000851838607   -0.1400
      7 S7         -9.4643   -2.2587   60.1277 S.o2    1  ZINC000851838607    2.6200
      8 O8         -8.0948   -2.6336   60.0738 O.2     1  ZINC000851838607   -0.9400
      9 O9        -10.3718   -2.9220   60.9969 O.2     1  ZINC000851838607   -0.9500
     10 N10       -10.0381   -2.5881   58.6096 N.am    1  ZINC000851838607   -1.1200
     11 C11       -11.4180   -2.2446   58.2576 C.3     1  ZINC000851838607    0.1100
     12 C12       -11.7274   -2.7558   56.8491 C.3     1  ZINC000851838607   -0.1400
     13 C13       -11.9439   -1.5668   55.9110 C.3     1  ZINC000851838607    0.1700
     14 H14       -11.6042   -0.6530   56.3983 H       1  ZINC000851838607    0.1000
     15 N15       -11.1826   -1.7739   54.6765 N.am    1  ZINC000851838607   -0.7100
     16 C16        -9.8907   -1.3958   54.6100 C.2     1  ZINC000851838607    0.6500
     17 O17        -9.3577   -0.8817   55.5735 O.2     1  ZINC000851838607   -0.5600
     18 O18        -9.1906   -1.5876   53.4761 O.3     1  ZINC000851838607   -0.3700
     19 C19        -8.9551   -0.4228   52.6418 C.3     1  ZINC000851838607    0.1400
     20 C20       -10.1646    0.5112   52.7167 C.3     1  ZINC000851838607   -0.1800
     21 C21        -7.7095    0.3152   53.1362 C.3     1  ZINC000851838607   -0.1400
     22 C22        -8.7431   -0.8675   51.1933 C.3     1  ZINC000851838607   -0.1800
     23 C23       -13.4321   -1.4443   55.5779 C.3     1  ZINC000851838607   -0.1100
     24 C24       -14.1694   -0.8145   56.7614 C.3     1  ZINC000851838607   -0.1500
     25 C25       -13.6068   -0.5619   54.3401 C.3     1  ZINC000851838607   -0.1400
     26 H26        -7.9136    0.9953   63.6632 H       1  ZINC000851838607    0.0400
     27 H27        -8.5241   -0.5895   64.1962 H       1  ZINC000851838607    0.0500
     28 H28        -6.8055   -0.3932   63.7759 H       1  ZINC000851838607    0.0900
     29 H29       -10.1656   -0.5767   62.3741 H       1  ZINC000851838607    0.0700
     30 H30        -9.5591    1.0160   61.8604 H       1  ZINC000851838607    0.0600
     31 H31        -8.6463   -0.1247   58.4026 H       1  ZINC000851838607    0.0700
     32 H32        -8.7186    1.3073   59.4573 H       1  ZINC000851838607    0.0900
     33 H33        -7.5735   -0.0068   59.8180 H       1  ZINC000851838607    0.0700
     34 H34        -9.4604   -3.0083   57.9534 H       1  ZINC000851838607    0.4200
     35 H35       -12.1007   -2.7073   58.9702 H       1  ZINC000851838607    0.0700
     36 H36       -11.5417   -1.1620   58.2864 H       1  ZINC000851838607    0.0800
     37 H37       -10.8918   -3.3557   56.4886 H       1  ZINC000851838607    0.0800
     38 H38       -12.6293   -3.3675   56.8746 H       1  ZINC000851838607    0.1000
     39 H39       -11.6083   -2.1832   53.9071 H       1  ZINC000851838607    0.4100
     40 H40       -10.3157    0.8280   53.7486 H       1  ZINC000851838607    0.0600
     41 H41        -9.9878    1.3855   52.0903 H       1  ZINC000851838607    0.0700
     42 H42       -11.0521   -0.0146   52.3644 H       1  ZINC000851838607    0.0900
     43 H43        -6.8477   -0.3502   53.0829 H       1  ZINC000851838607    0.0700
     44 H44        -7.5326    1.1896   52.5099 H       1  ZINC000851838607    0.0800
     45 H45        -7.8605    0.6321   54.1681 H       1  ZINC000851838607    0.0700
     46 H46        -9.6305   -1.3933   50.8410 H       1  ZINC000851838607    0.0900
     47 H47        -8.5662    0.0069   50.5669 H       1  ZINC000851838607    0.0700
     48 H48        -7.8813   -1.5330   51.1399 H       1  ZINC000851838607    0.0600
     49 H49       -13.8427   -2.4343   55.3792 H       1  ZINC000851838607    0.0700
     50 H50       -13.7589    0.1754   56.9600 H       1  ZINC000851838607    0.0600
     51 H51       -15.2297   -0.7272   56.5240 H       1  ZINC000851838607    0.0600
     52 H52       -14.0450   -1.4431   57.6431 H       1  ZINC000851838607    0.0600
     53 H53       -13.0815   -1.0105   53.4971 H       1  ZINC000851838607    0.0500
     54 H54       -14.6670   -0.4746   54.1029 H       1  ZINC000851838607    0.0500
     55 H55       -13.1962    0.4281   54.5389 H       1  ZINC000851838607    0.0700
@<TRIPOS>BOND
     1     1     2    1
     2     1    26    1
     3     1    27    1
     4     1    28    1
     5     2     3    1
     6     3     4    1
     7     3    29    1
     8     3    30    1
     9     4     5    1
    10     4     6    1
    11     4     7    1
    12     6    31    1
    13     6    32    1
    14     6    33    1
    15     7     8    2
    16     7     9    2
    17     7    10   am
    18    10    11    1
    19    10    34    1
    20    11    12    1
    21    11    35    1
    22    11    36    1
    23    12    13    1
    24    12    37    1
    25    12    38    1
    26    13    14    1
    27    13    15    1
    28    13    23    1
    29    15    16   am
    30    15    39    1
    31    16    17    2
    32    16    18    1
    33    18    19    1
    34    19    20    1
    35    19    21    1
    36    19    22    1
    37    20    40    1
    38    20    41    1
    39    20    42    1
    40    21    43    1
    41    21    44    1
    42    21    45    1
    43    22    46    1
    44    22    47    1
    45    22    48    1
    46    23    24    1
    47    23    25    1
    48    23    49    1
    49    24    50    1
    50    24    51    1
    51    24    52    1
    52    25    53    1
    53    25    54    1
    54    25    55    1
@<TRIPOS>SUBSTRUCTURE
     1 ZINC000851838607        1 TEMP              0 ****  ****    0 ROOT


##########                                Name:    ZINC000655982608
##########                DOCK_Rotatable_Bonds:                   5
##########                         Heavy_Atoms:                  29
##########                    Molecular_Weight:             388.469
##########                DOCK_Rotatable_Bonds:                   5
##########                       Formal_Charge:          -0.0200006
##########                     HBond_Acceptors:                   6
##########                        HBond_Donors:                   0
##########                         Heavy_Atoms:                  29
##########                          Grid_Score:          -29.746727
##########                     Grid_vdw_energy:          -29.135292
##########                      Grid_es_energy:           -0.611436
##########           Internal_energy_repulsive:           50.524513

@<TRIPOS>MOLECULE
ZINC000655982608
 53 57 1 0 0
SMALL
USER_CHARGES


@<TRIPOS>ATOM
      1 C1          0.4181    3.0639   48.1160 C.3     1  ZINC000655982608   -0.1900
      2 C2         -0.7844    3.0467   49.0618 C.3     1  ZINC000655982608    0.0800
      3 H3         -0.4657    2.7113   50.0487 H       1  ZINC000655982608    0.1000
      4 C4         -1.3709    4.4559   49.1667 C.3     1  ZINC000655982608   -0.0300
      5 C5         -2.5364    4.4451   50.1220 C.2     1  ZINC000655982608    0.2000
      6 N6         -2.6640    3.6947   51.1898 N.2     1  ZINC000655982608   -0.4800
      7 C7         -3.8528    4.0255   51.7247 C.2     1  ZINC000655982608    0.1700
      8 C8         -4.4636    3.4399   52.9717 C.3     1  ZINC000655982608   -0.0100
      9 H9         -3.6913    3.0607   53.6410 H       1  ZINC000655982608    0.1300
     10 C10        -5.3575    4.4773   53.6898 C.3     1  ZINC000655982608   -0.1400
     11 C11        -6.5173    3.6638   54.2205 C.2     1  ZINC000655982608    0.5200
     12 O12        -7.2949    4.0367   55.0732 O.2     1  ZINC000655982608   -0.5000
     13 N13        -6.5609    2.4675   53.6088 N.am    1  ZINC000655982608   -0.5600
     14 C14        -7.5110    1.4767   53.8796 C.ar    1  ZINC000655982608    0.1600
     15 C15        -7.4691    0.2675   53.1978 C.ar    1  ZINC000655982608   -0.1600
     16 C16        -8.4084   -0.7085   53.4672 C.ar    1  ZINC000655982608   -0.0900
     17 C17        -9.3903   -0.4825   54.4143 C.ar    1  ZINC000655982608   -0.1400
     18 C18        -9.4351    0.7205   55.0946 C.ar    1  ZINC000655982608   -0.0900
     19 C19        -8.4947    1.6981   54.8345 C.ar    1  ZINC000655982608   -0.1600
     20 C20        -5.4831    2.3336   52.6209 C.3     1  ZINC000655982608    0.1100
     21 N21        -4.3777    4.9431   50.9691 N.2     1  ZINC000655982608   -0.3700
     22 O22        -3.6348    5.2026   50.0460 O.3     1  ZINC000655982608    0.0900
     23 N23        -1.8054    2.1290   48.5390 N.3     1  ZINC000655982608   -0.4700
     24 C24        -2.3624    2.6274   47.2626 C.3     1  ZINC000655982608    0.0300
     25 C25        -2.7199    1.3212   46.5168 C.3     1  ZINC000655982608   -0.0800
     26 C26        -1.7699    0.3122   47.1307 C.ar    1  ZINC000655982608   -0.1400
     27 C27        -1.3803   -0.9449   46.7200 C.ar    1  ZINC000655982608   -0.0800
     28 C28        -0.4775   -1.6723   47.4751 C.ar    1  ZINC000655982608   -0.1400
     29 C29         0.0339   -1.1361   48.6423 C.ar    1  ZINC000655982608   -0.0900
     30 C30        -0.3544    0.1205   49.0588 C.ar    1  ZINC000655982608   -0.1400
     31 C31        -1.2658    0.8582   48.3055 C.ar    1  ZINC000655982608    0.1000
     32 H32         1.2193    3.6563   48.5577 H       1  ZINC000655982608    0.0700
     33 H33         0.7673    2.0442   47.9537 H       1  ZINC000655982608    0.0700
     34 H34         0.1243    3.5034   47.1627 H       1  ZINC000655982608    0.0700
     35 H35        -0.6067    5.1411   49.5336 H       1  ZINC000655982608    0.1200
     36 H36        -1.7099    4.7824   48.1836 H       1  ZINC000655982608    0.1100
     37 H37        -4.8139    4.9466   54.5099 H       1  ZINC000655982608    0.1200
     38 H38        -5.7104    5.2299   52.9847 H       1  ZINC000655982608    0.1200
     39 H39        -6.7029    0.0907   52.4574 H       1  ZINC000655982608    0.1200
     40 H40        -8.3763   -1.6490   52.9374 H       1  ZINC000655982608    0.1300
     41 H41       -10.1238   -1.2472   54.6229 H       1  ZINC000655982608    0.1200
     42 H42       -10.2036    0.8942   55.8333 H       1  ZINC000655982608    0.1300
     43 H43        -8.5303    2.6375   55.3661 H       1  ZINC000655982608    0.1500
     44 H44        -5.8729    2.4860   51.6145 H       1  ZINC000655982608    0.0900
     45 H45        -5.0178    1.3511   52.7013 H       1  ZINC000655982608    0.1000
     46 H46        -3.2544    3.2286   47.4386 H       1  ZINC000655982608    0.1000
     47 H47        -1.6144    3.1959   46.7101 H       1  ZINC000655982608    0.0700
     48 H48        -3.7560    1.0403   46.7052 H       1  ZINC000655982608    0.0900
     49 H49        -2.5351    1.4244   45.4475 H       1  ZINC000655982608    0.0800
     50 H50        -1.7806   -1.3626   45.8081 H       1  ZINC000655982608    0.1200
     51 H51        -0.1731   -2.6573   47.1534 H       1  ZINC000655982608    0.1200
     52 H52         0.7399   -1.7033   49.2306 H       1  ZINC000655982608    0.1300
     53 H53         0.0485    0.5335   49.9718 H       1  ZINC000655982608    0.1200
@<TRIPOS>BOND
     1     1     2    1
     2     1    32    1
     3     1    33    1
     4     1    34    1
     5     2     3    1
     6     2     4    1
     7     2    23    1
     8     4     5    1
     9     4    35    1
    10     4    36    1
    11     5    22    1
    12     5     6    2
    13     6     7    1
    14     7     8    1
    15     7    21    2
    16     8     9    1
    17     8    20    1
    18     8    10    1
    19    10    11    1
    20    10    37    1
    21    10    38    1
    22    11    12    2
    23    11    13   am
    24    13    14    1
    25    13    20    1
    26    14    19   ar
    27    14    15   ar
    28    15    16   ar
    29    15    39    1
    30    16    17   ar
    31    16    40    1
    32    17    18   ar
    33    17    41    1
    34    18    19   ar
    35    18    42    1
    36    19    43    1
    37    20    44    1
    38    20    45    1
    39    21    22    1
    40    23    31    1
    41    23    24    1
    42    24    25    1
    43    24    46    1
    44    24    47    1
    45    25    26    1
    46    25    48    1
    47    25    49    1
    48    26    31   ar
    49    26    27   ar
    50    27    28   ar
    51    27    50    1
    52    28    29   ar
    53    28    51    1
    54    29    30   ar
    55    29    52    1
    56    30    31   ar
    57    30    53    1
@<TRIPOS>SUBSTRUCTURE
     1 ZINC000655982608        1 TEMP              0 ****  ****    0 ROOT


##########                                Name:    ZINC000550011575
##########                DOCK_Rotatable_Bonds:                   6
##########                         Heavy_Atoms:                  28
##########                    Molecular_Weight:             423.935
##########                DOCK_Rotatable_Bonds:                   6
##########                       Formal_Charge:          -0.0100002
##########                     HBond_Acceptors:                   7
##########                        HBond_Donors:                   0
##########                         Heavy_Atoms:                  28
##########                          Grid_Score:          -29.733210
##########                     Grid_vdw_energy:          -29.169483
##########                      Grid_es_energy:           -0.563726
##########           Internal_energy_repulsive:           45.700531

@<TRIPOS>MOLECULE
ZINC000550011575
 51 53 1 0 0
SMALL
USER_CHARGES


@<TRIPOS>ATOM
      1 C1         -6.8740    3.5589   56.1884 C.3     1  ZINC000550011575   -0.1400
      2 C2         -7.6484    2.3510   55.6572 C.3     1  ZINC000550011575   -0.6100
      3 H3         -7.1341    1.4342   55.9457 H       1  ZINC000550011575    0.1500
      4 C4         -9.0391    2.3509   56.2380 C.2     1  ZINC000550011575    0.5400
      5 O5         -9.7322    3.3424   56.1520 O.2     1  ZINC000550011575   -0.5100
      6 N6         -9.5124    1.2490   56.8530 N.am    1  ZINC000550011575   -0.6000
      7 C7        -10.8649    1.2483   57.4161 C.3     1  ZINC000550011575    0.0600
      8 C8         -8.6744    0.0521   56.9585 C.3     1  ZINC000550011575    0.1500
      9 C9         -9.2117   -0.8434   58.0450 C.ar    1  ZINC000550011575   -0.1500
     10 C10        -8.8637   -0.6158   59.3652 C.ar    1  ZINC000550011575    0.1400
     11 F11        -8.0419    0.4093   59.6805 F       1  ZINC000550011575   -0.1100
     12 C12        -9.3586   -1.4390   60.3627 C.ar    1  ZINC000550011575   -0.1500
     13 C13       -10.1994   -2.4870   60.0399 C.ar    1  ZINC000550011575   -0.0700
     14 C14       -10.5471   -2.7144   58.7213 C.ar    1  ZINC000550011575   -0.1300
     15 C15       -10.0578   -1.8898   57.7241 C.ar    1  ZINC000550011575    0.0000
     16 Cl16      -10.4955   -2.1757   56.0687 Cl      1  ZINC000550011575   -0.0500
     17 S17        -7.7485    2.4445   53.8484 S.o2    1  ZINC000550011575    2.4500
     18 O18        -9.0534    2.8772   53.4889 O.2     1  ZINC000550011575   -0.9200
     19 O19        -6.6218    3.1659   53.3694 O.2     1  ZINC000550011575   -0.9100
     20 C20        -7.5651    0.7038   53.3725 C.3     1  ZINC000550011575   -0.5300
     21 H21        -7.2664    0.1222   54.2446 H       1  ZINC000550011575    0.1500
     22 C22        -6.4878    0.5866   52.2962 C.3     1  ZINC000550011575   -0.1100
     23 C23        -6.4986   -0.8475   51.7543 C.3     1  ZINC000550011575   -0.1100
     24 C24        -7.7807   -1.0489   50.9490 C.3     1  ZINC000550011575   -0.0900
     25 C25        -8.9823   -0.6245   51.7522 C.ar    1  ZINC000550011575   -0.0600
     26 C26       -10.2281   -1.0805   51.3418 C.ar    1  ZINC000550011575   -0.1200
     27 C27       -11.3680   -0.7226   52.0320 C.ar    1  ZINC000550011575   -0.1100
     28 C28       -11.2701    0.0972   53.1406 C.ar    1  ZINC000550011575   -0.1100
     29 C29       -10.0329    0.5494   53.5513 C.ar    1  ZINC000550011575   -0.1500
     30 C30        -8.8839    0.1875   52.8593 C.ar    1  ZINC000550011575   -0.0800
     31 H31        -5.8256    3.4726   55.9027 H       1  ZINC000550011575    0.0900
     32 H32        -7.2916    4.4727   55.7656 H       1  ZINC000550011575    0.0900
     33 H33        -6.9529    3.5920   57.2749 H       1  ZINC000550011575    0.0800
     34 H34       -11.5729    0.9084   56.6603 H       1  ZINC000550011575    0.0700
     35 H35       -10.9004    0.5781   58.2749 H       1  ZINC000550011575    0.0800
     36 H36       -11.1274    2.2579   57.7320 H       1  ZINC000550011575    0.0700
     37 H37        -8.6839   -0.4829   56.0088 H       1  ZINC000550011575    0.1000
     38 H38        -7.6525    0.3441   57.2006 H       1  ZINC000550011575    0.1100
     39 H39        -9.0872   -1.2622   61.3929 H       1  ZINC000550011575    0.1500
     40 H40       -10.5849   -3.1291   60.8181 H       1  ZINC000550011575    0.1500
     41 H41       -11.2041   -3.5339   58.4700 H       1  ZINC000550011575    0.1400
     42 H42        -6.6994    1.2861   51.4874 H       1  ZINC000550011575    0.0800
     43 H43        -5.5119    0.8085   52.7281 H       1  ZINC000550011575    0.0900
     44 H44        -5.6327   -1.0034   51.1108 H       1  ZINC000550011575    0.0800
     45 H45        -6.4716   -1.5537   52.5842 H       1  ZINC000550011575    0.0700
     46 H46        -7.7296   -0.4541   50.0371 H       1  ZINC000550011575    0.0800
     47 H47        -7.8780   -2.1020   50.6857 H       1  ZINC000550011575    0.0800
     48 H48       -10.3054   -1.7203   50.4752 H       1  ZINC000550011575    0.1300
     49 H49       -12.3334   -1.0815   51.7070 H       1  ZINC000550011575    0.1300
     50 H50       -12.1590    0.3832   53.6832 H       1  ZINC000550011575    0.1300
     51 H51        -9.9573    1.1904   54.4171 H       1  ZINC000550011575    0.1700
@<TRIPOS>BOND
     1     1     2    1
     2     1    31    1
     3     1    32    1
     4     1    33    1
     5     2     3    1
     6     2     4    1
     7     2    17    1
     8     4     5    2
     9     4     6   am
    10     6     7    1
    11     6     8    1
    12     7    34    1
    13     7    35    1
    14     7    36    1
    15     8     9    1
    16     8    37    1
    17     8    38    1
    18     9    15   ar
    19     9    10   ar
    20    10    11    1
    21    10    12   ar
    22    12    13   ar
    23    12    39    1
    24    13    14   ar
    25    13    40    1
    26    14    15   ar
    27    14    41    1
    28    15    16    1
    29    17    18    2
    30    17    19    2
    31    17    20    1
    32    20    21    1
    33    20    30    1
    34    20    22    1
    35    22    23    1
    36    22    42    1
    37    22    43    1
    38    23    24    1
    39    23    44    1
    40    23    45    1
    41    24    25    1
    42    24    46    1
    43    24    47    1
    44    25    30   ar
    45    25    26   ar
    46    26    27   ar
    47    26    48    1
    48    27    28   ar
    49    27    49    1
    50    28    29   ar
    51    28    50    1
    52    29    30   ar
    53    29    51    1
@<TRIPOS>SUBSTRUCTURE
     1 ZINC000550011575        1 TEMP              0 ****  ****    0 ROOT


##########                                Name:    ZINC000469459940
##########                DOCK_Rotatable_Bonds:                   7
##########                         Heavy_Atoms:                  24
##########                    Molecular_Weight:             414.295
##########                DOCK_Rotatable_Bonds:                   7
##########                       Formal_Charge:          -0.0200002
##########                     HBond_Acceptors:                   6
##########                        HBond_Donors:                   1
##########                         Heavy_Atoms:                  24
##########                          Grid_Score:          -29.729090
##########                     Grid_vdw_energy:          -28.718349
##########                      Grid_es_energy:           -1.010740
##########           Internal_energy_repulsive:           10.374191

@<TRIPOS>MOLECULE
ZINC000469459940
 41 42 1 0 0
SMALL
USER_CHARGES


@<TRIPOS>ATOM
      1 C1         -5.1498    1.7468   51.5046 C.3     1  ZINC000469459940   -0.1600
      2 C2         -5.6533    0.3992   50.9836 C.3     1  ZINC000469459940   -0.1200
      3 C3         -6.2500   -0.4043   52.1408 C.3     1  ZINC000469459940   -0.1200
      4 C4         -7.3357   -1.3401   51.6056 C.3     1  ZINC000469459940   -0.6000
      5 S5         -8.9688   -0.6234   51.9366 S.o2    1  ZINC000469459940    2.4900
      6 O6         -9.0754    0.6667   51.3506 O.2     1  ZINC000469459940   -0.9300
      7 O7         -9.9872   -1.5974   51.7538 O.2     1  ZINC000469459940   -0.9300
      8 C8         -8.9698   -0.3141   53.6714 C.ar    1  ZINC000469459940   -0.6400
      9 C9         -8.6977    0.9574   54.1443 C.ar    1  ZINC000469459940   -0.0300
     10 C10        -8.6965    1.2063   55.5012 C.ar    1  ZINC000469459940   -0.0800
     11 C11        -8.9710    0.1720   56.3976 C.ar    1  ZINC000469459940   -0.0900
     12 C12        -8.9719    0.4315   57.8528 C.2     1  ZINC000469459940    0.5600
     13 O13        -8.6739    1.5321   58.2740 O.2     1  ZINC000469459940   -0.5000
     14 N14        -9.3030   -0.5523   58.7125 N.am    1  ZINC000469459940   -0.6700
     15 C15        -9.3039   -0.3067   60.0896 C.ar    1  ZINC000469459940    0.1900
     16 C16        -8.3199   -0.8637   60.8958 C.ar    1  ZINC000469459940   -0.1500
     17 C17        -8.3220   -0.6204   62.2556 C.ar    1  ZINC000469459940   -0.0400
     18 C18        -9.3032    0.1773   62.8157 C.ar    1  ZINC000469459940   -0.1500
     19 Br19       -9.3024    0.5078   64.6776 Br      1  ZINC000469459940   -0.0200
     20 C20       -10.2870    0.7350   62.0143 C.ar    1  ZINC000469459940    0.1500
     21 F21       -11.2445    1.5138   62.5636 F       1  ZINC000469459940   -0.1200
     22 C22       -10.2853    0.4991   60.6516 C.ar    1  ZINC000469459940   -0.1500
     23 C23        -9.2451   -1.1084   55.9137 C.ar    1  ZINC000469459940   -0.1100
     24 C24        -9.2482   -1.3425   54.5541 C.ar    1  ZINC000469459940   -0.0300
     25 H25        -5.9807    2.3009   51.9414 H       1  ZINC000469459940    0.0600
     26 H26        -4.3853    1.5802   52.2636 H       1  ZINC000469459940    0.0600
     27 H27        -4.7246    2.3193   50.6803 H       1  ZINC000469459940    0.0600
     28 H28        -6.4177    0.5658   50.2247 H       1  ZINC000469459940    0.0700
     29 H29        -4.8224   -0.1549   50.5470 H       1  ZINC000469459940    0.0700
     30 H30        -5.4657   -0.9926   52.6172 H       1  ZINC000469459940    0.0800
     31 H31        -6.6859    0.2782   52.8704 H       1  ZINC000469459940    0.0800
     32 H32        -7.2066   -1.4692   50.5310 H       1  ZINC000469459940    0.1400
     33 H33        -7.2569   -2.3083   52.0999 H       1  ZINC000469459940    0.1400
     34 H34        -8.4856    1.7567   53.4497 H       1  ZINC000469459940    0.1500
     35 H35        -8.4833    2.1990   55.8691 H       1  ZINC000469459940    0.1500
     36 H36        -9.5407   -1.4305   58.3763 H       1  ZINC000469459940    0.4200
     37 H37        -7.5534   -1.4873   60.4600 H       1  ZINC000469459940    0.1500
     38 H38        -7.5566   -1.0538   62.8823 H       1  ZINC000469459940    0.1500
     39 H39       -11.0516    0.9336   60.0267 H       1  ZINC000469459940    0.1600
     40 H40        -9.4579   -1.9129   56.6019 H       1  ZINC000469459940    0.1400
     41 H41        -9.4601   -2.3326   54.1784 H       1  ZINC000469459940    0.1500
@<TRIPOS>BOND
     1     1     2    1
     2     1    25    1
     3     1    26    1
     4     1    27    1
     5     2     3    1
     6     2    28    1
     7     2    29    1
     8     3     4    1
     9     3    30    1
    10     3    31    1
    11     4     5    1
    12     4    32    1
    13     4    33    1
    14     5     6    2
    15     5     7    2
    16     5     8    1
    17     8    24   ar
    18     8     9   ar
    19     9    10   ar
    20     9    34    1
    21    10    11   ar
    22    10    35    1
    23    11    12    1
    24    11    23   ar
    25    12    13    2
    26    12    14   am
    27    14    15    1
    28    14    36    1
    29    15    22   ar
    30    15    16   ar
    31    16    17   ar
    32    16    37    1
    33    17    18   ar
    34    17    38    1
    35    18    19    1
    36    18    20   ar
    37    20    21    1
    38    20    22   ar
    39    22    39    1
    40    23    24   ar
    41    23    40    1
    42    24    41    1
@<TRIPOS>SUBSTRUCTURE
     1 ZINC000469459940        1 TEMP              0 ****  ****    0 ROOT


##########                                Name:    ZINC000518242403
##########                DOCK_Rotatable_Bonds:                   6
##########                         Heavy_Atoms:                  27
##########                    Molecular_Weight:             370.405
##########                DOCK_Rotatable_Bonds:                   6
##########                       Formal_Charge:          -0.0200004
##########                     HBond_Acceptors:                   7
##########                        HBond_Donors:                   1
##########                         Heavy_Atoms:                  27
##########                          Grid_Score:          -29.719240
##########                     Grid_vdw_energy:          -29.711836
##########                      Grid_es_energy:           -0.007404
##########           Internal_energy_repulsive:           15.726537

@<TRIPOS>MOLECULE
ZINC000518242403
 49 52 1 0 0
SMALL
USER_CHARGES


@<TRIPOS>ATOM
      1 C1        -13.4846   -0.3384   57.6554 C.3     1  ZINC000518242403   -0.1800
      2 C2        -12.2514   -0.2090   58.5517 C.3     1  ZINC000518242403    0.1000
      3 N3        -11.3581   -1.3468   58.3203 N.am    1  ZINC000518242403   -0.6200
      4 C4        -11.4396   -2.5292   59.1814 C.3     1  ZINC000518242403    0.1500
      5 C5        -10.6181   -2.2936   60.4505 C.3     1  ZINC000518242403    0.0300
      6 H6        -10.6931   -3.1630   61.1035 H       1  ZINC000518242403    0.0900
      7 C7         -9.1491   -2.0512   60.0784 C.3     1  ZINC000518242403    0.0300
      8 O8         -8.4132   -1.8212   61.2847 O.3     1  ZINC000518242403   -0.3000
      9 C9         -8.9628   -0.9568   62.1810 C.ar    1  ZINC000518242403    0.0500
     10 C10        -8.1669   -0.4116   63.1770 C.ar    1  ZINC000518242403   -0.1100
     11 C11        -8.7116    0.4652   64.0964 C.ar    1  ZINC000518242403   -0.1200
     12 C12       -10.0504    0.8011   64.0256 C.ar    1  ZINC000518242403   -0.1200
     13 C13       -10.8491    0.2624   63.0341 C.ar    1  ZINC000518242403   -0.1100
     14 C14       -10.3088   -0.6170   62.1080 C.ar    1  ZINC000518242403    0.0500
     15 O15       -11.1061   -1.1334   61.1331 O.3     1  ZINC000518242403   -0.3000
     16 C16       -10.4611   -1.3058   57.3152 C.2     1  ZINC000518242403    0.7100
     17 O17        -9.7206   -2.2508   57.1221 O.2     1  ZINC000518242403   -0.5700
     18 N18       -10.3849   -0.2174   56.5240 N.am    1  ZINC000518242403   -0.6800
     19 C19        -9.4523   -0.1748   55.4788 C.ar    1  ZINC000518242403    0.1700
     20 C20        -9.7003   -0.8623   54.2990 C.ar    1  ZINC000518242403   -0.1000
     21 C21        -8.7784   -0.8195   53.2662 C.ar    1  ZINC000518242403    0.0500
     22 C22        -7.6038   -0.0860   53.4142 C.ar    1  ZINC000518242403    0.0200
     23 C23        -7.3598    0.5984   54.5938 C.ar    1  ZINC000518242403   -0.0800
     24 C24        -8.2829    0.5599   55.6214 C.ar    1  ZINC000518242403   -0.1000
     25 C25        -8.0140    1.3056   56.9032 C.3     1  ZINC000518242403   -0.1100
     26 O26        -6.8701   -0.2020   52.2678 O.3     1  ZINC000518242403   -0.3100
     27 C27        -7.4148   -1.3416   51.5767 C.3     1  ZINC000518242403    0.2100
     28 O28        -8.7809   -1.3945   52.0281 O.3     1  ZINC000518242403   -0.3100
     29 H29       -13.1747   -0.3505   56.6104 H       1  ZINC000518242403    0.0600
     30 H30       -14.0084   -1.2651   57.8898 H       1  ZINC000518242403    0.0600
     31 H31       -14.1493    0.5082   57.8275 H       1  ZINC000518242403    0.0700
     32 H32       -11.7276    0.7178   58.3172 H       1  ZINC000518242403    0.1000
     33 H33       -12.5613   -0.1968   59.5966 H       1  ZINC000518242403    0.0700
     34 H34       -12.4800   -2.7115   59.4507 H       1  ZINC000518242403    0.1100
     35 H35       -11.0451   -3.3945   58.6487 H       1  ZINC000518242403    0.0900
     36 H36        -8.7504   -2.9267   59.5658 H       1  ZINC000518242403    0.1300
     37 H37        -9.0734   -1.1785   59.4296 H       1  ZINC000518242403    0.0800
     38 H38        -7.1205   -0.6726   63.2346 H       1  ZINC000518242403    0.1300
     39 H39        -8.0899    0.8888   64.8713 H       1  ZINC000518242403    0.1300
     40 H40       -10.4734    1.4853   64.7460 H       1  ZINC000518242403    0.1300
     41 H41       -11.8950    0.5263   62.9809 H       1  ZINC000518242403    0.1300
     42 H42       -10.9756    0.5365   56.6780 H       1  ZINC000518242403    0.4100
     43 H43       -10.6116   -1.4308   54.1864 H       1  ZINC000518242403    0.1500
     44 H44        -6.4490    1.1672   54.7086 H       1  ZINC000518242403    0.1400
     45 H45        -8.4138    2.3167   56.8260 H       1  ZINC000518242403    0.0800
     46 H46        -8.4948    0.7872   57.7328 H       1  ZINC000518242403    0.0700
     47 H47        -6.9392    1.3521   57.0777 H       1  ZINC000518242403    0.0800
     48 H48        -7.3735   -1.1911   50.4979 H       1  ZINC000518242403    0.1300
     49 H49        -6.8829   -2.2504   51.8582 H       1  ZINC000518242403    0.0900
@<TRIPOS>BOND
     1     1     2    1
     2     1    29    1
     3     1    30    1
     4     1    31    1
     5     2     3    1
     6     2    32    1
     7     2    33    1
     8     3     4    1
     9     3    16   am
    10     4     5    1
    11     4    34    1
    12     4    35    1
    13     5     6    1
    14     5    15    1
    15     5     7    1
    16     7     8    1
    17     7    36    1
    18     7    37    1
    19     8     9    1
    20     9    14   ar
    21     9    10   ar
    22    10    11   ar
    23    10    38    1
    24    11    12   ar
    25    11    39    1
    26    12    13   ar
    27    12    40    1
    28    13    14   ar
    29    13    41    1
    30    14    15    1
    31    16    17    2
    32    16    18   am
    33    18    19    1
    34    18    42    1
    35    19    24   ar
    36    19    20   ar
    37    20    21   ar
    38    20    43    1
    39    21    28    1
    40    21    22   ar
    41    22    23   ar
    42    22    26    1
    43    23    24   ar
    44    23    44    1
    45    24    25    1
    46    25    45    1
    47    25    46    1
    48    25    47    1
    49    26    27    1
    50    27    28    1
    51    27    48    1
    52    27    49    1
@<TRIPOS>SUBSTRUCTURE
     1 ZINC000518242403        1 TEMP              0 ****  ****    0 ROOT


##########                                Name:    ZINC000151303733
##########                DOCK_Rotatable_Bonds:                   7
##########                         Heavy_Atoms:                  26
##########                    Molecular_Weight:             369.444
##########                DOCK_Rotatable_Bonds:                   7
##########                       Formal_Charge:        -1.93715e-07
##########                     HBond_Acceptors:                   7
##########                        HBond_Donors:                   2
##########                         Heavy_Atoms:                  26
##########                          Grid_Score:          -29.707979
##########                     Grid_vdw_energy:          -28.358450
##########                      Grid_es_energy:           -1.349529
##########           Internal_energy_repulsive:           11.917748

@<TRIPOS>MOLECULE
ZINC000151303733
 45 48 1 0 0
SMALL
USER_CHARGES


@<TRIPOS>ATOM
      1 C1         -8.2989   -0.6881   65.8406 C.3     1  ZINC000151303733   -0.1000
      2 C2         -8.3796    0.6822   65.2185 C.2     1  ZINC000151303733   -0.1200
      3 C3         -8.5405    1.7905   65.9425 C.2     1  ZINC000151303733   -0.2000
      4 S4         -8.5899    3.1911   64.8801 S.3     1  ZINC000151303733    0.1200
      5 C5         -8.3831    2.1659   63.4661 C.2     1  ZINC000151303733   -0.2400
      6 C6         -8.2864    0.8874   63.8490 C.2     1  ZINC000151303733    0.1200
      7 N7         -8.1136   -0.1676   62.9338 N.am    1  ZINC000151303733   -0.6400
      8 C8         -8.8299   -0.1937   61.7924 C.2     1  ZINC000151303733    0.5100
      9 O9         -9.6237    0.6921   61.5541 O.2     1  ZINC000151303733   -0.5100
     10 C10        -8.6449   -1.3235   60.8124 C.3     1  ZINC000151303733    0.1000
     11 N11        -9.6354   -1.2063   59.7394 N.am    1  ZINC000151303733   -0.7100
     12 C12       -10.8522   -1.7683   59.8813 C.2     1  ZINC000151303733    0.5200
     13 O13       -11.1265   -2.3722   60.8966 O.2     1  ZINC000151303733   -0.5100
     14 C14       -11.8718   -1.6462   58.7783 C.3     1  ZINC000151303733    0.1600
     15 H15       -11.8629   -0.6353   58.3707 H       1  ZINC000151303733    0.1300
     16 C16       -13.2455   -1.9815   59.3029 C.ar    1  ZINC000151303733   -0.0900
     17 C17       -14.0397   -1.4331   60.2827 C.ar    1  ZINC000151303733   -0.0900
     18 C18       -15.2877   -1.9739   60.5448 C.ar    1  ZINC000151303733   -0.0800
     19 C19       -15.7385   -3.0649   59.8234 C.ar    1  ZINC000151303733   -0.1200
     20 C20       -14.9496   -3.6227   58.8383 C.ar    1  ZINC000151303733   -0.0400
     21 C21       -13.6909   -3.0833   58.5684 C.ar    1  ZINC000151303733   -0.1500
     22 C22       -12.6397   -3.4489   57.5997 C.2     1  ZINC000151303733    0.5600
     23 O23       -12.7143   -4.3677   56.8074 O.2     1  ZINC000151303733   -0.5100
     24 N24       -11.5867   -2.6199   57.7182 N.am    1  ZINC000151303733   -0.5700
     25 C25       -10.3592   -2.6803   56.9208 C.3     1  ZINC000151303733    0.0900
     26 C26       -10.4934   -2.5249   55.4046 C.3     1  ZINC000151303733   -0.1800
     27 C27        -9.8950   -1.3912   56.2397 C.3     1  ZINC000151303733   -0.1900
     28 H28        -7.2599   -0.9202   66.0746 H       1  ZINC000151303733    0.0700
     29 H29        -8.8905   -0.7071   66.7558 H       1  ZINC000151303733    0.0700
     30 H30        -8.6877   -1.4281   65.1411 H       1  ZINC000151303733    0.0600
     31 H31        -8.6279    1.8231   67.0185 H       1  ZINC000151303733    0.1700
     32 H32        -8.3369    2.5153   62.4452 H       1  ZINC000151303733    0.2000
     33 H33        -7.4790   -0.8759   63.1245 H       1  ZINC000151303733    0.4200
     34 H34        -7.6421   -1.2756   60.3879 H       1  ZINC000151303733    0.1100
     35 H35        -8.7768   -2.2756   61.3263 H       1  ZINC000151303733    0.1100
     36 H36        -9.4156   -0.7243   58.9269 H       1  ZINC000151303733    0.4100
     37 H37       -13.6904   -0.5816   60.8478 H       1  ZINC000151303733    0.1300
     38 H38       -15.9105   -1.5429   61.3147 H       1  ZINC000151303733    0.1400
     39 H39       -16.7124   -3.4822   60.0327 H       1  ZINC000151303733    0.1400
     40 H40       -15.3055   -4.4742   58.2771 H       1  ZINC000151303733    0.1400
     41 H41        -9.5907   -3.3586   57.2914 H       1  ZINC000151303733    0.1400
     42 H42        -9.8131   -3.1013   54.7775 H       1  ZINC000151303733    0.1000
     43 H43       -11.4949   -2.3779   55.0004 H       1  ZINC000151303733    0.1300
     44 H44       -10.5029   -0.4982   56.3851 H       1  ZINC000151303733    0.1000
     45 H45        -8.8211   -1.2216   56.1621 H       1  ZINC000151303733    0.1000
@<TRIPOS>BOND
     1     1     2    1
     2     1    28    1
     3     1    29    1
     4     1    30    1
     5     2     6    1
     6     2     3    2
     7     3     4    1
     8     3    31    1
     9     4     5    1
    10     5     6    2
    11     5    32    1
    12     6     7    1
    13     7     8   am
    14     7    33    1
    15     8     9    2
    16     8    10    1
    17    10    11    1
    18    10    34    1
    19    10    35    1
    20    11    12   am
    21    11    36    1
    22    12    13    2
    23    12    14    1
    24    14    15    1
    25    14    24    1
    26    14    16    1
    27    16    21   ar
    28    16    17   ar
    29    17    18   ar
    30    17    37    1
    31    18    19   ar
    32    18    38    1
    33    19    20   ar
    34    19    39    1
    35    20    21   ar
    36    20    40    1
    37    21    22    1
    38    22    23    2
    39    22    24   am
    40    24    25    1
    41    25    27    1
    42    25    26    1
    43    25    41    1
    44    26    27    1
    45    26    42    1
    46    26    43    1
    47    27    44    1
    48    27    45    1
@<TRIPOS>SUBSTRUCTURE
     1 ZINC000151303733        1 TEMP              0 ****  ****    0 ROOT


##########                                Name:    ZINC000963156778
##########                DOCK_Rotatable_Bonds:                   6
##########                         Heavy_Atoms:                  24
##########                    Molecular_Weight:             349.414
##########                DOCK_Rotatable_Bonds:                   6
##########                       Formal_Charge:         -0.00999984
##########                     HBond_Acceptors:                   9
##########                        HBond_Donors:                   2
##########                         Heavy_Atoms:                  24
##########                          Grid_Score:          -29.657909
##########                     Grid_vdw_energy:          -28.855066
##########                      Grid_es_energy:           -0.802843
##########           Internal_energy_repulsive:           12.875722

@<TRIPOS>MOLECULE
ZINC000963156778
 43 46 1 0 0
SMALL
USER_CHARGES


@<TRIPOS>ATOM
      1 C1         -0.5776    5.4152   54.0195 C.3     1  ZINC000963156778   -0.0800
      2 C2         -0.6844    4.3107   55.0393 C.2     1  ZINC000963156778    0.0300
      3 C3         -1.7994    3.5675   55.2292 C.2     1  ZINC000963156778   -0.2600
      4 C4         -3.1157    3.6699   54.5026 C.3     1  ZINC000963156778    0.1300
      5 N5         -3.0949    2.7911   53.3256 N.3     1  ZINC000963156778   -0.5000
      6 C6         -2.0774    3.2427   52.3420 C.3     1  ZINC000963156778    0.0600
      7 C7         -2.5229    2.6130   51.0047 C.3     1  ZINC000963156778   -0.1700
      8 H8         -1.8641    1.8725   50.5510 H       1  ZINC000963156778    0.1200
      9 C9         -4.0371    2.3651   51.1631 C.3     1  ZINC000963156778   -0.1700
     10 H10        -4.5080    1.4459   50.8145 H       1  ZINC000963156778    0.1200
     11 C11        -4.3792    2.8659   52.5828 C.3     1  ZINC000963156778    0.0600
     12 C12        -3.4894    3.4043   50.1212 C.3     1  ZINC000963156778    0.1200
     13 H13        -3.6303    4.4617   50.3449 H       1  ZINC000963156778    0.1400
     14 N14        -3.5660    3.0435   48.7035 N.am    1  ZINC000963156778   -0.7000
     15 C15        -2.4632    3.1075   47.9313 C.2     1  ZINC000963156778    0.5100
     16 O16        -1.4072    3.4624   48.4106 O.2     1  ZINC000963156778   -0.5000
     17 C17        -2.5424    2.7380   46.4724 C.3     1  ZINC000963156778   -0.1300
     18 C18        -1.4199    1.7551   46.1336 C.3     1  ZINC000963156778   -0.1100
     19 H19        -0.4560    2.1497   46.4553 H       1  ZINC000963156778    0.1300
     20 C20        -1.4040    1.4493   44.6220 C.3     1  ZINC000963156778   -0.1600
     21 C21        -1.6614   -0.0404   44.5590 C.2     1  ZINC000963156778    0.5300
     22 O22        -1.7296   -0.6989   43.5433 O.2     1  ZINC000963156778   -0.4800
     23 N23        -1.8015   -0.5163   45.8025 N.am    1  ZINC000963156778   -0.6900
     24 C24        -1.6824    0.4073   46.7691 C.2     1  ZINC000963156778    0.5200
     25 O25        -1.7735    0.1940   47.9590 O.2     1  ZINC000963156778   -0.4500
     26 S26        -1.3692    2.4780   56.4903 S.3     1  ZINC000963156778    0.4500
     27 N27         0.0919    3.0095   56.6702 N.2     1  ZINC000963156778   -0.2900
     28 N28         0.2990    3.9573   55.8416 N.2     1  ZINC000963156778   -0.2400
     29 H29        -0.2241    5.0037   53.0740 H       1  ZINC000963156778    0.0900
     30 H30        -1.5568    5.8712   53.8738 H       1  ZINC000963156778    0.0800
     31 H31         0.1256    6.1693   54.3730 H       1  ZINC000963156778    0.0800
     32 H32        -3.9232    3.3660   55.1689 H       1  ZINC000963156778    0.1000
     33 H33        -3.2758    4.7000   54.1842 H       1  ZINC000963156778    0.0700
     34 H34        -2.0762    4.3303   52.2683 H       1  ZINC000963156778    0.0600
     35 H35        -1.0892    2.8788   52.6230 H       1  ZINC000963156778    0.0800
     36 H36        -5.1241    2.2182   53.0451 H       1  ZINC000963156778    0.1000
     37 H37        -4.7383    3.8944   52.5468 H       1  ZINC000963156778    0.0500
     38 H38        -4.4104    2.7586   48.3205 H       1  ZINC000963156778    0.4000
     39 H39        -3.5066    2.2732   46.2672 H       1  ZINC000963156778    0.1000
     40 H40        -2.4350    3.6360   45.8639 H       1  ZINC000963156778    0.1200
     41 H41        -2.1959    1.9974   44.1115 H       1  ZINC000963156778    0.1200
     42 H42        -0.4314    1.6892   44.1923 H       1  ZINC000963156778    0.1300
     43 H43        -1.9736   -1.4522   45.9900 H       1  ZINC000963156778    0.4200
@<TRIPOS>BOND
     1     1     2    1
     2     1    29    1
     3     1    30    1
     4     1    31    1
     5     2    28    1
     6     2     3    2
     7     3     4    1
     8     3    26    1
     9     4     5    1
    10     4    32    1
    11     4    33    1
    12     5    11    1
    13     5     6    1
    14     6     7    1
    15     6    34    1
    16     6    35    1
    17     7     8    1
    18     7    12    1
    19     7     9    1
    20     9    10    1
    21     9    11    1
    22     9    12    1
    23    11    36    1
    24    11    37    1
    25    12    13    1
    26    12    14    1
    27    14    15   am
    28    14    38    1
    29    15    16    2
    30    15    17    1
    31    17    18    1
    32    17    39    1
    33    17    40    1
    34    18    19    1
    35    18    24    1
    36    18    20    1
    37    20    21    1
    38    20    41    1
    39    20    42    1
    40    21    22    2
    41    21    23   am
    42    23    24   am
    43    23    43    1
    44    24    25    2
    45    26    27    1
    46    27    28    2
@<TRIPOS>SUBSTRUCTURE
     1 ZINC000963156778        1 TEMP              0 ****  ****    0 ROOT


##########                                Name:    ZINC001053792610
##########                DOCK_Rotatable_Bonds:                   5
##########                         Heavy_Atoms:                  25
##########                    Molecular_Weight:             347.374
##########                DOCK_Rotatable_Bonds:                   5
##########                       Formal_Charge:          -0.0400001
##########                     HBond_Acceptors:                   9
##########                        HBond_Donors:                   2
##########                         Heavy_Atoms:                  25
##########                          Grid_Score:          -29.629663
##########                     Grid_vdw_energy:          -29.180447
##########                      Grid_es_energy:           -0.449217
##########           Internal_energy_repulsive:            5.065834

@<TRIPOS>MOLECULE
ZINC001053792610
 46 49 1 0 0
SMALL
USER_CHARGES


@<TRIPOS>ATOM
      1 C1         -9.3720   -1.2491   52.2415 C.3     1  ZINC001053792610   -0.1000
      2 C2         -8.2258   -0.2732   52.3123 C.ar    1  ZINC001053792610    0.0800
      3 C3         -8.4185    0.9815   52.8622 C.ar    1  ZINC001053792610    0.0600
      4 N4         -7.4134    1.8373   52.9242 N.ar    1  ZINC001053792610   -0.4200
      5 C5         -6.2244    1.4945   52.4610 C.ar    1  ZINC001053792610    0.0800
      6 C6         -5.0781    2.4702   52.5322 C.3     1  ZINC001053792610    0.0700
      7 N7         -4.6939    2.8743   51.1731 N.3     1  ZINC001053792610   -0.4500
      8 C8         -3.5154    2.1160   50.7090 C.3     1  ZINC001053792610   -0.0100
      9 C9         -2.9804    3.4221   50.1253 C.3     1  ZINC001053792610    0.0800
     10 C10        -3.8428    4.0802   51.2004 C.3     1  ZINC001053792610   -0.0100
     11 C11        -1.4663    3.6357   50.2786 C.3     1  ZINC001053792610   -0.1500
     12 C12        -0.9736    3.5191   48.8086 C.3     1  ZINC001053792610    0.1100
     13 H13        -0.0712    4.1093   48.6491 H       1  ZINC001053792610    0.1200
     14 N14        -0.7576    2.1193   48.4340 N.am    1  ZINC001053792610   -0.7100
     15 C15         0.4910    1.6691   48.2005 C.2     1  ZINC001053792610    0.5000
     16 O16         1.4361    2.4225   48.3019 O.2     1  ZINC001053792610   -0.5100
     17 C17         0.7130    0.2298   47.8135 C.3     1  ZINC001053792610    0.0800
     18 H18         1.6615    0.1175   47.2883 H       1  ZINC001053792610    0.1300
     19 C19         0.6728   -0.6778   49.0582 C.3     1  ZINC001053792610    0.0500
     20 O20        -0.4470   -1.5748   48.8046 O.3     1  ZINC001053792610   -0.3200
     21 C21        -0.9977   -1.2776   47.6223 C.2     1  ZINC001053792610    0.6500
     22 O22        -1.9529   -1.8747   47.1669 O.2     1  ZINC001053792610   -0.5100
     23 N23        -0.3983   -0.2594   46.9833 N.am    1  ZINC001053792610   -0.7100
     24 C24        -2.1785    4.1232   48.0428 C.3     1  ZINC001053792610    0.0400
     25 O25        -3.3418    3.6992   48.7760 O.3     1  ZINC001053792610   -0.3300
     26 C26        -6.0316    0.2394   51.9108 C.ar    1  ZINC001053792610    0.0600
     27 N27        -7.0352   -0.6181   51.8538 N.ar    1  ZINC001053792610   -0.4400
     28 H28        -9.3963   -1.8476   53.1522 H       1  ZINC001053792610    0.0800
     29 H29       -10.3094   -0.7019   52.1413 H       1  ZINC001053792610    0.0800
     30 H30        -9.2394   -1.9036   51.3800 H       1  ZINC001053792610    0.0800
     31 H31        -9.3904    1.2617   53.2405 H       1  ZINC001053792610    0.1700
     32 H32        -5.3838    3.3491   53.0998 H       1  ZINC001053792610    0.1000
     33 H33        -4.2284    1.9973   53.0245 H       1  ZINC001053792610    0.0600
     34 H34        -2.9054    1.7207   51.5211 H       1  ZINC001053792610    0.0800
     35 H35        -3.7508    1.3664   49.9535 H       1  ZINC001053792610    0.0900
     36 H36        -4.3531    4.9804   50.8578 H       1  ZINC001053792610    0.1000
     37 H37        -3.3226    4.2238   52.1474 H       1  ZINC001053792610    0.0800
     38 H38        -1.2517    4.6245   50.6840 H       1  ZINC001053792610    0.1000
     39 H39        -1.0243    2.8572   50.9003 H       1  ZINC001053792610    0.1000
     40 H40        -1.5134    1.5165   48.3542 H       1  ZINC001053792610    0.4000
     41 H41         1.6010   -1.2418   49.1499 H       1  ZINC001053792610    0.1200
     42 H42         0.4933   -0.0869   49.9563 H       1  ZINC001053792610    0.1100
     43 H43        -0.6583    0.0952   46.1186 H       1  ZINC001053792610    0.4400
     44 H44        -2.1134    5.2112   48.0331 H       1  ZINC001053792610    0.0800
     45 H45        -2.2116    3.7365   47.0242 H       1  ZINC001053792610    0.0900
     46 H46        -5.0598   -0.0408   51.5322 H       1  ZINC001053792610    0.1600
@<TRIPOS>BOND
     1     1     2    1
     2     1    28    1
     3     1    29    1
     4     1    30    1
     5     2    27   ar
     6     2     3   ar
     7     3     4   ar
     8     3    31    1
     9     4     5   ar
    10     5     6    1
    11     5    26   ar
    12     6     7    1
    13     6    32    1
    14     6    33    1
    15     7    10    1
    16     7     8    1
    17     8     9    1
    18     8    34    1
    19     8    35    1
    20     9    25    1
    21     9    10    1
    22     9    11    1
    23    10    36    1
    24    10    37    1
    25    11    12    1
    26    11    38    1
    27    11    39    1
    28    12    13    1
    29    12    14    1
    30    12    24    1
    31    14    15   am
    32    14    40    1
    33    15    16    2
    34    15    17    1
    35    17    18    1
    36    17    23    1
    37    17    19    1
    38    19    20    1
    39    19    41    1
    40    19    42    1
    41    20    21    1
    42    21    22    2
    43    21    23   am
    44    23    43    1
    45    24    25    1
    46    24    44    1
    47    24    45    1
    48    26    27   ar
    49    26    46    1
@<TRIPOS>SUBSTRUCTURE
     1 ZINC001053792610        1 TEMP              0 ****  ****    0 ROOT


##########                                Name:    ZINC001436455587
##########                DOCK_Rotatable_Bonds:                   9
##########                         Heavy_Atoms:                  21
##########                    Molecular_Weight:             378.693
##########                DOCK_Rotatable_Bonds:                   9
##########                       Formal_Charge:          -0.0200001
##########                     HBond_Acceptors:                   5
##########                        HBond_Donors:                   1
##########                         Heavy_Atoms:                  21
##########                          Grid_Score:          -29.609568
##########                     Grid_vdw_energy:          -29.112186
##########                      Grid_es_energy:           -0.497382
##########           Internal_energy_repulsive:            8.930649

@<TRIPOS>MOLECULE
ZINC001436455587
 42 42 1 0 0
SMALL
USER_CHARGES


@<TRIPOS>ATOM
      1 C1         -5.9973    0.7995   51.7189 C.3     1  ZINC001436455587   -0.1500
      2 C2         -6.4743   -0.6457   51.8757 C.3     1  ZINC001436455587   -0.1300
      3 C3         -7.8211   -0.8177   51.1704 C.3     1  ZINC001436455587   -0.1400
      4 C4         -8.9478   -0.3820   52.1094 C.3     1  ZINC001436455587    0.0800
      5 H5         -8.6100    0.4577   52.7170 H       1  ZINC001436455587    0.0700
      6 C6         -9.3320   -1.5492   53.0211 C.3     1  ZINC001436455587    0.1200
      7 N7         -9.8259   -1.0291   54.2984 N.am    1  ZINC001436455587   -0.7200
      8 C8        -10.1630   -1.8804   55.2875 C.2     1  ZINC001436455587    0.5200
      9 O9        -10.0560   -3.0768   55.1205 O.2     1  ZINC001436455587   -0.5100
     10 C10       -10.6728   -1.3454   56.6009 C.3     1  ZINC001436455587    0.0600
     11 H11       -11.6392   -0.8653   56.4471 H       1  ZINC001436455587    0.1000
     12 C12        -9.6783   -0.3237   57.1559 C.3     1  ZINC001436455587   -0.1800
     13 O13       -10.8180   -2.4217   57.5295 O.3     1  ZINC001436455587   -0.2700
     14 C14       -11.7475   -2.2700   58.5098 C.ar    1  ZINC001436455587    0.1600
     15 C15       -13.0957   -2.2292   58.1879 C.ar    1  ZINC001436455587   -0.2000
     16 C16       -14.0392   -2.0753   59.1857 C.ar    1  ZINC001436455587   -0.0500
     17 C17       -13.6400   -1.9616   60.5053 C.ar    1  ZINC001436455587   -0.0700
     18 Cl18      -14.8276   -1.7678   61.7566 Cl      1  ZINC001436455587   -0.0600
     19 C19       -12.2952   -2.0024   60.8294 C.ar    1  ZINC001436455587   -0.0400
     20 C20       -11.3487   -2.1614   59.8351 C.ar    1  ZINC001436455587   -0.1200
     21 Br21       -9.5111   -2.2172   60.2779 Br      1  ZINC001436455587   -0.0100
     22 O22       -10.0839    0.0143   51.3386 O.3     1  ZINC001436455587   -0.3800
     23 C23       -10.9101    0.9883   51.9797 C.3     1  ZINC001436455587    0.0200
     24 H24        -5.8853    1.0323   50.6599 H       1  ZINC001436455587    0.0500
     25 H25        -6.7291    1.4740   52.1637 H       1  ZINC001436455587    0.0600
     26 H26        -5.0378    0.9221   52.2213 H       1  ZINC001436455587    0.0600
     27 H27        -5.7426   -1.3201   51.4308 H       1  ZINC001436455587    0.0600
     28 H28        -6.5864   -0.8785   52.9346 H       1  ZINC001436455587    0.0700
     29 H29        -7.8408   -0.2036   50.2701 H       1  ZINC001436455587    0.0800
     30 H30        -7.9583   -1.8644   50.8994 H       1  ZINC001436455587    0.0800
     31 H31       -10.1127   -2.1414   52.5436 H       1  ZINC001436455587    0.0800
     32 H32        -8.4575   -2.1756   53.1974 H       1  ZINC001436455587    0.0800
     33 H33        -9.9103   -0.0721   54.4324 H       1  ZINC001436455587    0.4000
     34 H34       -10.0470    0.0632   58.1059 H       1  ZINC001436455587    0.0800
     35 H35        -8.7119   -0.8037   57.3097 H       1  ZINC001436455587    0.0800
     36 H36        -9.5675    0.4974   56.4476 H       1  ZINC001436455587    0.0800
     37 H37       -13.4080   -2.3172   57.1578 H       1  ZINC001436455587    0.1500
     38 H38       -15.0892   -2.0435   58.9351 H       1  ZINC001436455587    0.1400
     39 H39       -11.9855   -1.9138   61.8602 H       1  ZINC001436455587    0.1500
     40 H40       -10.3522    1.9173   52.0972 H       1  ZINC001436455587    0.0500
     41 H41       -11.7957    1.1708   51.3709 H       1  ZINC001436455587    0.0900
     42 H42       -11.2126    0.6196   52.9598 H       1  ZINC001436455587    0.0400
@<TRIPOS>BOND
     1     1     2    1
     2     1    24    1
     3     1    25    1
     4     1    26    1
     5     2     3    1
     6     2    27    1
     7     2    28    1
     8     3     4    1
     9     3    29    1
    10     3    30    1
    11     4     5    1
    12     4     6    1
    13     4    22    1
    14     6     7    1
    15     6    31    1
    16     6    32    1
    17     7     8   am
    18     7    33    1
    19     8     9    2
    20     8    10    1
    21    10    11    1
    22    10    12    1
    23    10    13    1
    24    12    34    1
    25    12    35    1
    26    12    36    1
    27    13    14    1
    28    14    20   ar
    29    14    15   ar
    30    15    16   ar
    31    15    37    1
    32    16    17   ar
    33    16    38    1
    34    17    18    1
    35    17    19   ar
    36    19    20   ar
    37    19    39    1
    38    20    21    1
    39    22    23    1
    40    23    40    1
    41    23    41    1
    42    23    42    1
@<TRIPOS>SUBSTRUCTURE
     1 ZINC001436455587        1 TEMP              0 ****  ****    0 ROOT


##########                                Name:    ZINC001078110631
##########                DOCK_Rotatable_Bonds:                   7
##########                         Heavy_Atoms:                  25
##########                    Molecular_Weight:             353.369
##########                DOCK_Rotatable_Bonds:                   7
##########                       Formal_Charge:           0.0100006
##########                     HBond_Acceptors:                   8
##########                        HBond_Donors:                   2
##########                         Heavy_Atoms:                  25
##########                          Grid_Score:          -29.600639
##########                     Grid_vdw_energy:          -28.605982
##########                      Grid_es_energy:           -0.994657
##########           Internal_energy_repulsive:            7.979583

@<TRIPOS>MOLECULE
ZINC001078110631
 46 48 1 0 0
SMALL
USER_CHARGES


@<TRIPOS>ATOM
      1 O1        -11.2609   -1.1718   54.8159 O.2     1  ZINC001078110631   -0.5100
      2 C2        -10.0797   -1.0970   55.0948 C.2     1  ZINC001078110631    0.5600
      3 N3         -9.6709   -1.3165   56.3602 N.am    1  ZINC001078110631   -0.7200
      4 C4        -10.6503   -1.6393   57.4008 C.3     1  ZINC001078110631    0.1500
      5 H5        -11.6507   -1.3471   57.0820 H       1  ZINC001078110631    0.1200
      6 C6        -10.2809   -0.9322   58.7225 C.3     1  ZINC001078110631    0.0300
      7 N7        -10.6316   -1.9126   59.7822 N.3     1  ZINC001078110631   -0.5000
      8 C8         -9.9084   -1.6228   61.0277 C.3     1  ZINC001078110631    0.0300
      9 C9        -10.4696   -0.3466   61.6580 C.3     1  ZINC001078110631    0.1300
     10 N10        -9.6786    0.0025   62.8407 N.am    1  ZINC001078110631   -0.6200
     11 C11        -8.2776   -0.3848   63.0436 C.3     1  ZINC001078110631    0.1000
     12 C12        -7.7520    0.5412   64.1629 C.3     1  ZINC001078110631   -0.1300
     13 C13        -9.0550    0.8969   64.9156 C.3     1  ZINC001078110631   -0.1600
     14 C14       -10.1410    0.7233   63.8767 C.2     1  ZINC001078110631    0.5200
     15 O15       -11.2671    1.1642   63.9685 O.2     1  ZINC001078110631   -0.5200
     16 C16       -10.2171   -3.2232   59.2185 C.3     1  ZINC001078110631    0.0000
     17 C17       -10.6101   -3.1469   57.7252 C.3     1  ZINC001078110631    0.1000
     18 H18        -9.8612   -3.6464   57.1106 H       1  ZINC001078110631    0.0700
     19 O19       -11.8947   -3.7381   57.5193 O.3     1  ZINC001078110631   -0.5500
     20 C20        -9.0932   -0.7719   54.0465 C.ar    1  ZINC001078110631   -0.1900
     21 C21        -9.1690   -1.3900   52.7961 C.ar    1  ZINC001078110631   -0.0300
     22 C22        -8.2454   -1.0829   51.8209 C.ar    1  ZINC001078110631   -0.1700
     23 C23        -7.2404   -0.1617   52.0773 C.ar    1  ZINC001078110631    0.1600
     24 F24        -6.3382    0.1344   51.1163 F       1  ZINC001078110631   -0.1200
     25 C25        -7.1581    0.4563   53.3145 C.ar    1  ZINC001078110631   -0.2000
     26 C26        -8.0812    0.1610   54.2992 C.ar    1  ZINC001078110631    0.2000
     27 F27        -8.0009    0.7636   55.5056 F       1  ZINC001078110631   -0.1000
     28 H28        -8.7281   -1.2609   56.5818 H       1  ZINC001078110631    0.4000
     29 H29        -9.2143   -0.7091   58.7491 H       1  ZINC001078110631    0.0500
     30 H30       -10.8643   -0.0193   58.8411 H       1  ZINC001078110631    0.1000
     31 H31       -10.0310   -2.4549   61.7210 H       1  ZINC001078110631    0.0400
     32 H32        -8.8495   -1.4849   60.8093 H       1  ZINC001078110631    0.0800
     33 H33       -10.4209    0.4676   60.9350 H       1  ZINC001078110631    0.0900
     34 H34       -11.5067   -0.5114   61.9502 H       1  ZINC001078110631    0.0800
     35 H35        -8.2158   -1.4271   63.3564 H       1  ZINC001078110631    0.0700
     36 H36        -7.7071   -0.2307   62.1277 H       1  ZINC001078110631    0.0800
     37 H37        -7.0577    0.0105   64.8143 H       1  ZINC001078110631    0.0900
     38 H38        -7.2872    1.4340   63.7444 H       1  ZINC001078110631    0.0800
     39 H39        -9.2102    0.2160   65.7526 H       1  ZINC001078110631    0.1100
     40 H40        -9.0252    1.9295   65.2632 H       1  ZINC001078110631    0.1000
     41 H41        -9.1406   -3.3584   59.3227 H       1  ZINC001078110631    0.0600
     42 H42       -10.7525   -4.0351   59.7107 H       1  ZINC001078110631    0.0900
     43 H43       -11.9676   -4.6448   57.8474 H       1  ZINC001078110631    0.3800
     44 H44        -9.9503   -2.1077   52.5941 H       1  ZINC001078110631    0.1500
     45 H45        -8.3038   -1.5609   50.8543 H       1  ZINC001078110631    0.1500
     46 H46        -6.3734    1.1726   53.5084 H       1  ZINC001078110631    0.1600
@<TRIPOS>BOND
     1     1     2    2
     2     2     3   am
     3     2    20    1
     4     3     4    1
     5     3    28    1
     6     4     5    1
     7     4    17    1
     8     4     6    1
     9     6     7    1
    10     6    29    1
    11     6    30    1
    12     7     8    1
    13     7    16    1
    14     8     9    1
    15     8    31    1
    16     8    32    1
    17     9    10    1
    18     9    33    1
    19     9    34    1
    20    10    14   am
    21    10    11    1
    22    11    12    1
    23    11    35    1
    24    11    36    1
    25    12    13    1
    26    12    37    1
    27    12    38    1
    28    13    14    1
    29    13    39    1
    30    13    40    1
    31    14    15    2
    32    16    17    1
    33    16    41    1
    34    16    42    1
    35    17    18    1
    36    17    19    1
    37    19    43    1
    38    20    26   ar
    39    20    21   ar
    40    21    22   ar
    41    21    44    1
    42    22    23   ar
    43    22    45    1
    44    23    24    1
    45    23    25   ar
    46    25    26   ar
    47    25    46    1
    48    26    27    1
@<TRIPOS>SUBSTRUCTURE
     1 ZINC001078110631        1 TEMP              0 ****  ****    0 ROOT


##########                                Name:    ZINC001371344729
##########                DOCK_Rotatable_Bonds:                   9
##########                         Heavy_Atoms:                  24
##########                    Molecular_Weight:             332.399
##########                DOCK_Rotatable_Bonds:                   9
##########                       Formal_Charge:          0.00999983
##########                     HBond_Acceptors:                   6
##########                        HBond_Donors:                   1
##########                         Heavy_Atoms:                  24
##########                          Grid_Score:          -29.589890
##########                     Grid_vdw_energy:          -30.054188
##########                      Grid_es_energy:            0.464299
##########           Internal_energy_repulsive:           26.805161

@<TRIPOS>MOLECULE
ZINC001371344729
 48 49 1 0 0
SMALL
USER_CHARGES


@<TRIPOS>ATOM
      1 C1         -2.0936    2.9700   52.9276 C.3     1  ZINC001371344729   -0.1800
      2 C2         -2.8630    3.5659   51.7470 C.3     1  ZINC001371344729    0.1000
      3 N3         -3.3439    2.4856   50.8822 N.am    1  ZINC001371344729   -0.6100
      4 C4         -4.5267    1.8925   51.1391 C.2     1  ZINC001371344729    0.5100
      5 O5         -4.9255    0.9992   50.4224 O.2     1  ZINC001371344729   -0.5200
      6 C6         -5.3536    2.3395   52.3171 C.3     1  ZINC001371344729   -0.0600
      7 C7         -6.4012    1.2992   52.6191 C.2     1  ZINC001371344729   -0.0100
      8 C8         -7.6149    1.5356   53.1487 C.2     1  ZINC001371344729   -0.1600
      9 C9         -8.1756    2.8769   53.5460 C.3     1  ZINC001371344729   -0.0800
     10 C10        -8.2612    0.2838   53.2666 C.2     1  ZINC001371344729   -0.2100
     11 C11        -7.4075   -0.6417   52.7932 C.2     1  ZINC001371344729   -0.0300
     12 O12        -6.2811   -0.0213   52.4059 O.3     1  ZINC001371344729   -0.1700
     13 C13        -2.5393    2.0498   49.7382 C.3     1  ZINC001371344729    0.1200
     14 H14        -2.9369    1.1120   49.3505 H       1  ZINC001371344729    0.1100
     15 C15        -1.0898    1.8443   50.1829 C.3     1  ZINC001371344729   -0.1600
     16 C16        -2.5903    3.1169   48.6429 C.3     1  ZINC001371344729    0.1100
     17 N17        -1.7811    2.6837   47.5010 N.am    1  ZINC001371344729   -0.7200
     18 C18        -2.3030    1.8439   46.5851 C.2     1  ZINC001371344729    0.5900
     19 O19        -3.4461    1.4467   46.7060 O.2     1  ZINC001371344729   -0.5300
     20 C20        -1.4883    1.4068   45.4374 C.2     1  ZINC001371344729   -0.2300
     21 C21        -1.8701    0.5785   44.4229 C.2     1  ZINC001371344729    0.0200
     22 O22        -0.8395    0.4363   43.5839 O.3     1  ZINC001371344729   -0.1700
     23 C23         0.2239    1.1366   44.0085 C.2     1  ZINC001371344729   -0.0100
     24 C24         1.5596    1.2039   43.3141 C.3     1  ZINC001371344729   -0.0800
     25 C25        -0.0922    1.7672   45.1499 C.2     1  ZINC001371344729   -0.1600
     26 H26        -1.2442    2.3970   52.5555 H       1  ZINC001371344729    0.0700
     27 H27        -1.7357    3.7738   53.5710 H       1  ZINC001371344729    0.0700
     28 H28        -2.7524    2.3146   53.4972 H       1  ZINC001371344729    0.0600
     29 H29        -2.2041    4.2212   51.1774 H       1  ZINC001371344729    0.0900
     30 H30        -3.7124    4.1389   52.1190 H       1  ZINC001371344729    0.0800
     31 H31        -5.8392    3.2866   52.0817 H       1  ZINC001371344729    0.1100
     32 H32        -4.7083    2.4683   53.1861 H       1  ZINC001371344729    0.1200
     33 H33        -8.6999    3.3172   52.6979 H       1  ZINC001371344729    0.0700
     34 H34        -8.8706    2.7486   54.3759 H       1  ZINC001371344729    0.0700
     35 H35        -7.3620    3.5347   53.8516 H       1  ZINC001371344729    0.0600
     36 H36        -9.2516    0.1051   53.6588 H       1  ZINC001371344729    0.1500
     37 H37        -7.5941   -1.7041   52.7390 H       1  ZINC001371344729    0.2000
     38 H38        -1.0535    1.0841   50.9632 H       1  ZINC001371344729    0.0700
     39 H39        -0.4911    1.5201   49.3317 H       1  ZINC001371344729    0.0700
     40 H40        -0.6923    2.7823   50.5706 H       1  ZINC001371344729    0.0700
     41 H41        -3.6224    3.2603   48.3231 H       1  ZINC001371344729    0.0800
     42 H42        -2.1967    4.0559   49.0318 H       1  ZINC001371344729    0.0800
     43 H43        -0.8697    3.0014   47.4040 H       1  ZINC001371344729    0.4000
     44 H44        -2.8410    0.1177   44.3150 H       1  ZINC001371344729    0.2100
     45 H45         2.2028    0.4059   43.6853 H       1  ZINC001371344729    0.0800
     46 H46         1.4171    1.0856   42.2400 H       1  ZINC001371344729    0.0800
     47 H47         2.0252    2.1688   43.5147 H       1  ZINC001371344729    0.0900
     48 H48         0.5480    2.4086   45.7374 H       1  ZINC001371344729    0.1600
@<TRIPOS>BOND
     1     1     2    1
     2     1    26    1
     3     1    27    1
     4     1    28    1
     5     2     3    1
     6     2    29    1
     7     2    30    1
     8     3     4   am
     9     3    13    1
    10     4     5    2
    11     4     6    1
    12     6     7    1
    13     6    31    1
    14     6    32    1
    15     7    12    1
    16     7     8    2
    17     8     9    1
    18     8    10    1
    19     9    33    1
    20     9    34    1
    21     9    35    1
    22    10    11    2
    23    10    36    1
    24    11    12    1
    25    11    37    1
    26    13    14    1
    27    13    15    1
    28    13    16    1
    29    15    38    1
    30    15    39    1
    31    15    40    1
    32    16    17    1
    33    16    41    1
    34    16    42    1
    35    17    18   am
    36    17    43    1
    37    18    19    2
    38    18    20    1
    39    20    25    1
    40    20    21    2
    41    21    22    1
    42    21    44    1
    43    22    23    1
    44    23    24    1
    45    23    25    2
    46    24    45    1
    47    24    46    1
    48    24    47    1
    49    25    48    1
@<TRIPOS>SUBSTRUCTURE
     1 ZINC001371344729        1 TEMP              0 ****  ****    0 ROOT


##########                                Name:    ZINC001085817863
##########                DOCK_Rotatable_Bonds:                   7
##########                         Heavy_Atoms:                  24
##########                    Molecular_Weight:             326.442
##########                DOCK_Rotatable_Bonds:                   7
##########                       Formal_Charge:           0.0299998
##########                     HBond_Acceptors:                   5
##########                        HBond_Donors:                   0
##########                         Heavy_Atoms:                  24
##########                          Grid_Score:          -29.567116
##########                     Grid_vdw_energy:          -28.408867
##########                      Grid_es_energy:           -1.158249
##########           Internal_energy_repulsive:           14.646381

@<TRIPOS>MOLECULE
ZINC001085817863
 50 52 1 0 0
SMALL
USER_CHARGES


@<TRIPOS>ATOM
      1 C1          2.8361    2.0949   47.6478 C.3     1  ZINC001085817863   -0.1400
      2 C2          1.4123    2.2713   48.1791 C.3     1  ZINC001085817863   -0.0700
      3 C3          0.7542    0.9220   48.3102 C.2     1  ZINC001085817863    0.1100
      4 C4         -0.1339    0.3756   47.4251 C.2     1  ZINC001085817863   -0.2400
      5 C5         -0.6257    0.9820   46.1766 C.2     1  ZINC001085817863    0.6000
      6 O6          0.0144    0.8628   45.1493 O.2     1  ZINC001085817863   -0.5300
      7 N7         -1.7853    1.6690   46.1721 N.am    1  ZINC001085817863   -0.6100
      8 C8         -2.2745    2.2722   44.9300 C.3     1  ZINC001085817863    0.0800
      9 C9         -2.5563    1.8125   47.4095 C.3     1  ZINC001085817863    0.1300
     10 C10        -2.0169    2.9982   48.2120 C.3     1  ZINC001085817863    0.0100
     11 H11        -1.0687    2.7784   48.7028 H       1  ZINC001085817863    0.0800
     12 C12        -2.0069    4.3159   47.4246 C.3     1  ZINC001085817863   -0.1400
     13 C13        -2.4482    4.9202   48.7650 C.3     1  ZINC001085817863    0.0000
     14 N14        -3.0173    3.6030   49.1111 N.3     1  ZINC001085817863   -0.4400
     15 C15        -2.7417    3.2623   50.5132 C.3     1  ZINC001085817863    0.0700
     16 C16        -3.9415    2.5706   51.1072 C.ar    1  ZINC001085817863   -0.1300
     17 C17        -4.6464    3.1569   52.1471 C.ar    1  ZINC001085817863   -0.0700
     18 C18        -5.7441    2.4842   52.6622 C.ar    1  ZINC001085817863   -0.1700
     19 C19        -6.0966    1.2605   52.1258 C.ar    1  ZINC001085817863    0.1000
     20 N20        -5.4025    0.7325   51.1364 N.ar    1  ZINC001085817863   -0.4800
     21 C21        -4.3566    1.3461   50.6184 C.ar    1  ZINC001085817863    0.1200
     22 C22        -0.4971   -0.9368   47.9706 C.2     1  ZINC001085817863   -0.1900
     23 C23         0.1894   -1.0721   49.1191 C.2     1  ZINC001085817863   -0.0200
     24 N24         0.9451    0.0468   49.3157 N.pl3   1  ZINC001085817863   -0.4400
     25 C25         1.8298    0.2689   50.4620 C.3     1  ZINC001085817863    0.0600
     26 H26         3.3122    3.0709   47.5528 H       1  ZINC001085817863    0.0600
     27 H27         3.4084    1.4774   48.3399 H       1  ZINC001085817863    0.0500
     28 H28         2.8024    1.6107   46.6717 H       1  ZINC001085817863    0.0600
     29 H29         1.4460    2.7555   49.1550 H       1  ZINC001085817863    0.0600
     30 H30         0.8401    2.8889   47.4868 H       1  ZINC001085817863    0.1100
     31 H31        -2.4028    1.4964   44.1752 H       1  ZINC001085817863    0.0700
     32 H32        -3.2311    2.7606   45.1154 H       1  ZINC001085817863    0.0700
     33 H33        -1.5534    3.0086   44.5751 H       1  ZINC001085817863    0.0600
     34 H34        -3.6047    1.9853   47.1663 H       1  ZINC001085817863    0.0800
     35 H35        -2.4660    0.9018   48.0016 H       1  ZINC001085817863    0.1000
     36 H36        -1.0167    4.6325   47.0968 H       1  ZINC001085817863    0.0800
     37 H37        -2.7611    4.3724   46.6396 H       1  ZINC001085817863    0.1000
     38 H38        -1.6156    5.2137   49.4041 H       1  ZINC001085817863    0.0700
     39 H39        -3.1982    5.7044   48.6618 H       1  ZINC001085817863    0.0800
     40 H40        -1.8782    2.5990   50.5629 H       1  ZINC001085817863    0.0900
     41 H41        -2.5329    4.1733   51.0741 H       1  ZINC001085817863    0.0500
     42 H42        -4.3473    4.1147   52.5467 H       1  ZINC001085817863    0.1300
     43 H43        -6.3162    2.9111   53.4727 H       1  ZINC001085817863    0.1300
     44 H44        -6.9500    0.7301   52.5216 H       1  ZINC001085817863    0.1600
     45 H45        -3.8128    0.8825   49.8086 H       1  ZINC001085817863    0.1500
     46 H46        -1.1800   -1.6520   47.5364 H       1  ZINC001085817863    0.1600
     47 H47         0.1519   -1.9283   49.7764 H       1  ZINC001085817863    0.1600
     48 H48         2.8254   -0.1103   50.2315 H       1  ZINC001085817863    0.0800
     49 H49         1.8879    1.3363   50.6748 H       1  ZINC001085817863    0.0900
     50 H50         1.4345   -0.2543   51.3327 H       1  ZINC001085817863    0.0900
@<TRIPOS>BOND
     1     1     2    1
     2     1    26    1
     3     1    27    1
     4     1    28    1
     5     2     3    1
     6     2    29    1
     7     2    30    1
     8     3    24    1
     9     3     4    2
    10     4     5    1
    11     4    22    1
    12     5     6    2
    13     5     7   am
    14     7     8    1
    15     7     9    1
    16     8    31    1
    17     8    32    1
    18     8    33    1
    19     9    10    1
    20     9    34    1
    21     9    35    1
    22    10    11    1
    23    10    14    1
    24    10    12    1
    25    12    13    1
    26    12    36    1
    27    12    37    1
    28    13    14    1
    29    13    38    1
    30    13    39    1
    31    14    15    1
    32    15    16    1
    33    15    40    1
    34    15    41    1
    35    16    21   ar
    36    16    17   ar
    37    17    18   ar
    38    17    42    1
    39    18    19   ar
    40    18    43    1
    41    19    20   ar
    42    19    44    1
    43    20    21   ar
    44    21    45    1
    45    22    23    2
    46    22    46    1
    47    23    24    1
    48    23    47    1
    49    24    25    1
    50    25    48    1
    51    25    49    1
    52    25    50    1
@<TRIPOS>SUBSTRUCTURE
     1 ZINC001085817863        1 TEMP              0 ****  ****    0 ROOT


##########                                Name:    ZINC000546115054
##########                DOCK_Rotatable_Bonds:                  10
##########                         Heavy_Atoms:                  26
##########                    Molecular_Weight:             363.457
##########                DOCK_Rotatable_Bonds:                  10
##########                       Formal_Charge:        -4.39584e-07
##########                     HBond_Acceptors:                   7
##########                        HBond_Donors:                   2
##########                         Heavy_Atoms:                  26
##########                          Grid_Score:          -29.556471
##########                     Grid_vdw_energy:          -29.267693
##########                      Grid_es_energy:           -0.288778
##########           Internal_energy_repulsive:           19.923082

@<TRIPOS>MOLECULE
ZINC000546115054
 55 56 1 0 0
SMALL
USER_CHARGES


@<TRIPOS>ATOM
      1 C1         -8.0852   -1.6123   60.2635 C.3     1  ZINC000546115054   -0.1500
      2 C2         -9.0697   -1.0053   59.2618 C.3     1  ZINC000546115054    0.0600
      3 O3         -9.5955   -2.0378   58.4254 O.3     1  ZINC000546115054   -0.3700
      4 C4        -10.9839   -1.8890   58.1216 C.3     1  ZINC000546115054    0.0500
      5 H5        -11.3383   -0.9293   58.4979 H       1  ZINC000546115054    0.0700
      6 C6        -11.7761   -3.0211   58.7808 C.3     1  ZINC000546115054    0.0400
      7 O7        -13.1559   -2.9033   58.4282 O.3     1  ZINC000546115054   -0.3700
      8 C8        -13.4101   -3.0019   57.0254 C.3     1  ZINC000546115054    0.0600
      9 C9        -12.6835   -1.8692   56.2957 C.3     1  ZINC000546115054   -0.1600
     10 C10       -11.1852   -1.9499   56.6044 C.3     1  ZINC000546115054    0.1700
     11 H11       -10.7842   -2.8886   56.2221 H       1  ZINC000546115054    0.1000
     12 N12       -10.4927   -0.8262   55.9689 N.am    1  ZINC000546115054   -0.7300
     13 C13        -9.8207   -1.0139   54.8158 C.2     1  ZINC000546115054    0.7200
     14 O14        -9.7880   -2.1162   54.3037 O.2     1  ZINC000546115054   -0.5900
     15 N15        -9.1849    0.0203   54.2303 N.am    1  ZINC000546115054   -0.7200
     16 C16        -8.4529   -0.1842   52.9778 C.3     1  ZINC000546115054    0.1600
     17 H17        -7.9692   -1.1608   52.9951 H       1  ZINC000546115054    0.1200
     18 C18        -9.4282   -0.1189   51.8007 C.3     1  ZINC000546115054   -0.1000
     19 C19       -10.6084    0.7408   52.1733 C.ar    1  ZINC000546115054   -0.0800
     20 C20       -10.4723    2.1154   52.2286 C.ar    1  ZINC000546115054   -0.1100
     21 C21       -11.5550    2.9038   52.5703 C.ar    1  ZINC000546115054   -0.1200
     22 C22       -12.7739    2.3180   52.8566 C.ar    1  ZINC000546115054   -0.1200
     23 C23       -12.9102    0.9436   52.8006 C.ar    1  ZINC000546115054   -0.1200
     24 C24       -11.8288    0.1552   52.4545 C.ar    1  ZINC000546115054   -0.1100
     25 C25        -7.4085    0.8913   52.8250 C.2     1  ZINC000546115054    0.5000
     26 O26        -7.4712    1.8976   53.4990 O.2     1  ZINC000546115054   -0.5200
     27 N27        -6.4046    0.7349   51.9394 N.am    1  ZINC000546115054   -0.6200
     28 C28        -5.3882    1.7796   51.7921 C.3     1  ZINC000546115054    0.0800
     29 C29        -6.3299   -0.4799   51.1240 C.3     1  ZINC000546115054    0.0700
     30 H30        -7.6840   -0.8247   60.9014 H       1  ZINC000546115054    0.0700
     31 H31        -8.6008   -2.3503   60.8779 H       1  ZINC000546115054    0.0600
     32 H32        -7.2694   -2.0942   59.7247 H       1  ZINC000546115054    0.0600
     33 H33        -9.8854   -0.5233   59.8006 H       1  ZINC000546115054    0.0500
     34 H34        -8.5540   -0.2672   58.6473 H       1  ZINC000546115054    0.0500
     35 H35       -11.3934   -3.9815   58.4357 H       1  ZINC000546115054    0.0600
     36 H36       -11.6708   -2.9556   59.8638 H       1  ZINC000546115054    0.1000
     37 H37       -13.0487   -3.9622   56.6572 H       1  ZINC000546115054    0.0600
     38 H38       -14.4818   -2.9229   56.8437 H       1  ZINC000546115054    0.1000
     39 H39       -12.8399   -1.9685   55.2216 H       1  ZINC000546115054    0.0900
     40 H40       -13.0730   -0.9091   56.6342 H       1  ZINC000546115054    0.0800
     41 H41       -10.5177    0.0529   56.3780 H       1  ZINC000546115054    0.3900
     42 H42        -9.2120    0.8999   54.6382 H       1  ZINC000546115054    0.4000
     43 H43        -8.9245    0.3110   50.9350 H       1  ZINC000546115054    0.0900
     44 H44        -9.7730   -1.1241   51.5584 H       1  ZINC000546115054    0.1100
     45 H45        -9.5201    2.5730   52.0049 H       1  ZINC000546115054    0.1200
     46 H46       -11.4485    3.9777   52.6142 H       1  ZINC000546115054    0.1200
     47 H47       -13.6195    2.9341   53.1244 H       1  ZINC000546115054    0.1200
     48 H48       -13.8625    0.4859   53.0245 H       1  ZINC000546115054    0.1200
     49 H49       -11.9353   -0.9186   52.4107 H       1  ZINC000546115054    0.1200
     50 H50        -4.5662    1.5865   52.4815 H       1  ZINC000546115054    0.0600
     51 H51        -5.0122    1.7791   50.7691 H       1  ZINC000546115054    0.0700
     52 H52        -5.8301    2.7504   52.0164 H       1  ZINC000546115054    0.0800
     53 H53        -6.8813   -0.3291   50.1959 H       1  ZINC000546115054    0.0600
     54 H54        -5.2872   -0.7005   50.8955 H       1  ZINC000546115054    0.0800
     55 H55        -6.7656   -1.3141   51.6739 H       1  ZINC000546115054    0.0700
@<TRIPOS>BOND
     1     1     2    1
     2     1    30    1
     3     1    31    1
     4     1    32    1
     5     2     3    1
     6     2    33    1
     7     2    34    1
     8     3     4    1
     9     4     5    1
    10     4    10    1
    11     4     6    1
    12     6     7    1
    13     6    35    1
    14     6    36    1
    15     7     8    1
    16     8     9    1
    17     8    37    1
    18     8    38    1
    19     9    10    1
    20     9    39    1
    21     9    40    1
    22    10    11    1
    23    10    12    1
    24    12    13   am
    25    12    41    1
    26    13    14    2
    27    13    15   am
    28    15    16    1
    29    15    42    1
    30    16    17    1
    31    16    18    1
    32    16    25    1
    33    18    19    1
    34    18    43    1
    35    18    44    1
    36    19    24   ar
    37    19    20   ar
    38    20    21   ar
    39    20    45    1
    40    21    22   ar
    41    21    46    1
    42    22    23   ar
    43    22    47    1
    44    23    24   ar
    45    23    48    1
    46    24    49    1
    47    25    26    2
    48    25    27   am
    49    27    28    1
    50    27    29    1
    51    28    50    1
    52    28    51    1
    53    28    52    1
    54    29    53    1
    55    29    54    1
    56    29    55    1
@<TRIPOS>SUBSTRUCTURE
     1 ZINC000546115054        1 TEMP              0 ****  ****    0 ROOT


##########                                Name:    ZINC000279452407
##########                DOCK_Rotatable_Bonds:                   6
##########                         Heavy_Atoms:                  24
##########                    Molecular_Weight:              375.47
##########                DOCK_Rotatable_Bonds:                   6
##########                       Formal_Charge:          0.00999929
##########                     HBond_Acceptors:                  10
##########                        HBond_Donors:                   3
##########                         Heavy_Atoms:                  24
##########                          Grid_Score:          -29.549156
##########                     Grid_vdw_energy:          -29.647247
##########                      Grid_es_energy:            0.098091
##########           Internal_energy_repulsive:           26.486727

@<TRIPOS>MOLECULE
ZINC000279452407
 45 47 1 0 0
SMALL
USER_CHARGES


@<TRIPOS>ATOM
      1 C1          0.4724    1.5963   47.6898 C.3     1  ZINC000279452407   -0.1600
      2 C2          0.5857    0.9757   46.2958 C.3     1  ZINC000279452407    0.0600
      3 H3          0.0286    0.0395   46.2601 H       1  ZINC000279452407    0.0700
      4 O4          1.9682    0.7356   45.9773 O.3     1  ZINC000279452407   -0.3700
      5 C5          2.1180    0.9522   44.5572 C.3     1  ZINC000279452407    0.0500
      6 C6          1.2262    2.1911   44.2824 C.3     1  ZINC000279452407   -0.1400
      7 C7          0.0379    1.9506   45.2432 C.3     1  ZINC000279452407    0.0700
      8 C8         -0.3742    3.2652   45.9008 C.3     1  ZINC000279452407    0.1100
      9 N9         -1.6116    3.0359   46.6657 N.am    1  ZINC000279452407   -0.6300
     10 C10        -1.7227    3.4422   47.9460 C.2     1  ZINC000279452407    0.7200
     11 O11        -0.7923    4.0075   48.4873 O.2     1  ZINC000279452407   -0.5800
     12 N12        -2.8651    3.2218   48.6263 N.am    1  ZINC000279452407   -0.7500
     13 C13        -2.9858    3.6633   50.0178 C.3     1  ZINC000279452407    0.2000
     14 C14        -4.0384    2.8413   50.7162 C.2     1  ZINC000279452407   -0.1700
     15 C15        -4.7632    3.2465   51.7601 C.2     1  ZINC000279452407   -0.1400
     16 C16        -5.6722    2.3170   52.2350 C.2     1  ZINC000279452407    0.0100
     17 C17        -5.6856    1.1569   51.5768 C.2     1  ZINC000279452407   -0.7900
     18 S18        -6.7324   -0.2106   51.9499 S.o2    1  ZINC000279452407    2.7300
     19 N19        -8.1458    0.0123   51.1163 N.am    1  ZINC000279452407   -1.2500
     20 O20        -6.1107   -1.3573   51.3862 O.2     1  ZINC000279452407   -0.9600
     21 O21        -7.0583   -0.1019   53.3287 O.2     1  ZINC000279452407   -0.9500
     22 S22        -4.5043    1.2039   50.2746 S.3     1  ZINC000279452407    0.2500
     23 C23        -2.7233    2.3497   45.9882 C.3     1  ZINC000279452407    0.0700
     24 C24        -2.1856    1.0608   45.3561 C.3     1  ZINC000279452407    0.0400
     25 O25        -1.0543    1.3737   44.5382 O.3     1  ZINC000279452407   -0.3600
     26 H26        -0.5791    1.6916   47.9607 H       1  ZINC000279452407    0.0700
     27 H27         0.9778    0.9575   48.4141 H       1  ZINC000279452407    0.0600
     28 H28         0.9378    2.5820   47.6875 H       1  ZINC000279452407    0.0800
     29 H29         3.1578    1.1654   44.3092 H       1  ZINC000279452407    0.1000
     30 H30         1.7584    0.0889   43.9974 H       1  ZINC000279452407    0.0700
     31 H31         1.7517    3.1126   44.5333 H       1  ZINC000279452407    0.1000
     32 H32         0.8898    2.2064   43.2458 H       1  ZINC000279452407    0.1000
     33 H33         0.4149    3.6017   46.5732 H       1  ZINC000279452407    0.1200
     34 H34        -0.5521    4.0187   45.1336 H       1  ZINC000279452407    0.0800
     35 H35        -3.6074    2.7707   48.1944 H       1  ZINC000279452407    0.4000
     36 H36        -2.0292    3.5346   50.5242 H       1  ZINC000279452407    0.1000
     37 H37        -3.2710    4.7151   50.0419 H       1  ZINC000279452407    0.0900
     38 H38        -4.6491    4.2256   52.2015 H       1  ZINC000279452407    0.1600
     39 H39        -6.3211    2.5158   53.0752 H       1  ZINC000279452407    0.1600
     40 H40        -8.6849    0.8023   51.2781 H       1  ZINC000279452407    0.4200
     41 H41        -8.4346   -0.6472   50.4663 H       1  ZINC000279452407    0.4200
     42 H42        -3.4997    2.1060   46.7133 H       1  ZINC000279452407    0.0900
     43 H43        -3.1332    2.9953   45.2114 H       1  ZINC000279452407    0.0900
     44 H44        -1.8860    0.3675   46.1421 H       1  ZINC000279452407    0.0600
     45 H45        -2.9628    0.6040   44.7435 H       1  ZINC000279452407    0.1100
@<TRIPOS>BOND
     1     1     2    1
     2     1    26    1
     3     1    27    1
     4     1    28    1
     5     2     3    1
     6     2     7    1
     7     2     4    1
     8     4     5    1
     9     5     6    1
    10     5    29    1
    11     5    30    1
    12     6     7    1
    13     6    31    1
    14     6    32    1
    15     7    25    1
    16     7     8    1
    17     8     9    1
    18     8    33    1
    19     8    34    1
    20     9    10   am
    21     9    23    1
    22    10    11    2
    23    10    12   am
    24    12    13    1
    25    12    35    1
    26    13    14    1
    27    13    36    1
    28    13    37    1
    29    14    22    1
    30    14    15    2
    31    15    16    1
    32    15    38    1
    33    16    17    2
    34    16    39    1
    35    17    18    1
    36    17    22    1
    37    18    19   am
    38    18    20    2
    39    18    21    2
    40    19    40    1
    41    19    41    1
    42    23    24    1
    43    23    42    1
    44    23    43    1
    45    24    25    1
    46    24    44    1
    47    24    45    1
@<TRIPOS>SUBSTRUCTURE
     1 ZINC000279452407        1 TEMP              0 ****  ****    0 ROOT


##########                                Name:    ZINC000467104849
##########                DOCK_Rotatable_Bonds:                   6
##########                         Heavy_Atoms:                  29
##########                    Molecular_Weight:             421.896
##########                DOCK_Rotatable_Bonds:                   6
##########                       Formal_Charge:           0.0200002
##########                     HBond_Acceptors:                   7
##########                        HBond_Donors:                   0
##########                         Heavy_Atoms:                  29
##########                          Grid_Score:          -29.537104
##########                     Grid_vdw_energy:          -29.455776
##########                      Grid_es_energy:           -0.081327
##########           Internal_energy_repulsive:           69.759293

@<TRIPOS>MOLECULE
ZINC000467104849
 54 56 1 0 0
SMALL
USER_CHARGES


@<TRIPOS>ATOM
      1 C1         -8.0380    0.6131   53.7273 C.3     1  ZINC000467104849    0.0200
      2 O2         -8.7378    1.0814   54.8820 O.3     1  ZINC000467104849   -0.3000
      3 C3         -9.3835    0.1493   55.6328 C.ar    1  ZINC000467104849    0.1000
      4 C4         -9.3580   -1.1837   55.2571 C.ar    1  ZINC000467104849   -0.1700
      5 C5        -10.0148   -2.1303   56.0219 C.ar    1  ZINC000467104849   -0.1200
      6 C6        -10.6980   -1.7496   57.1614 C.ar    1  ZINC000467104849   -0.0800
      7 C7        -11.4125   -2.7851   57.9909 C.3     1  ZINC000467104849   -0.0400
      8 C8        -12.8459   -2.9470   57.4808 C.3     1  ZINC000467104849   -0.1300
      9 C9        -10.6779   -4.1226   57.8806 C.3     1  ZINC000467104849   -0.1600
     10 C10       -11.4389   -2.3438   59.4316 C.2     1  ZINC000467104849    0.5300
     11 O11       -12.4973   -2.2399   60.0148 O.2     1  ZINC000467104849   -0.5300
     12 N12       -10.2864   -2.0645   60.0721 N.am    1  ZINC000467104849   -0.6100
     13 C13        -8.9903   -2.1832   59.3855 C.3     1  ZINC000467104849    0.0600
     14 C14        -8.2078   -0.8829   59.6014 C.3     1  ZINC000467104849    0.0500
     15 O15        -8.1610   -0.5883   60.9995 O.3     1  ZINC000467104849   -0.3700
     16 C16        -9.4413   -0.3577   61.5923 C.3     1  ZINC000467104849    0.1300
     17 H17        -9.9416    0.4592   61.0721 H       1  ZINC000467104849    0.0800
     18 C18        -9.2659    0.0030   63.0449 C.ar    1  ZINC000467104849   -0.0900
     19 C19        -8.2125   -0.5273   63.7657 C.ar    1  ZINC000467104849   -0.0500
     20 C20        -8.0500   -0.1976   65.0983 C.ar    1  ZINC000467104849   -0.1400
     21 C21        -8.9424    0.6646   65.7114 C.ar    1  ZINC000467104849    0.1200
     22 F22        -8.7842    0.9877   67.0136 F       1  ZINC000467104849   -0.1200
     23 C23        -9.9983    1.1963   64.9881 C.ar    1  ZINC000467104849   -0.0800
     24 Cl24      -11.1190    2.2779   65.7548 Cl      1  ZINC000467104849   -0.0400
     25 C25       -10.1556    0.8685   63.6539 C.ar    1  ZINC000467104849   -0.0700
     26 C26       -10.2873   -1.6258   61.4766 C.3     1  ZINC000467104849    0.0900
     27 C27       -10.7271   -0.4205   57.5423 C.ar    1  ZINC000467104849   -0.1600
     28 C28       -10.0667    0.5320   56.7835 C.ar    1  ZINC000467104849    0.1100
     29 O29       -10.0944    1.8395   57.1567 O.3     1  ZINC000467104849   -0.3000
     30 C30       -10.7992    2.1564   58.3587 C.3     1  ZINC000467104849    0.0200
     31 H31        -7.5688    1.4561   53.2201 H       1  ZINC000467104849    0.1000
     32 H32        -7.2718   -0.1002   54.0313 H       1  ZINC000467104849    0.0600
     33 H33        -8.7395    0.1261   53.0500 H       1  ZINC000467104849    0.0600
     34 H34        -8.8255   -1.4838   54.3667 H       1  ZINC000467104849    0.1400
     35 H35        -9.9942   -3.1693   55.7280 H       1  ZINC000467104849    0.1300
     36 H36       -12.8278   -3.3505   56.4683 H       1  ZINC000467104849    0.0700
     37 H37       -13.3893   -3.6296   58.1343 H       1  ZINC000467104849    0.0700
     38 H38       -13.3418   -1.9763   57.4763 H       1  ZINC000467104849    0.0700
     39 H39        -9.6870   -4.0307   58.3254 H       1  ZINC000467104849    0.0700
     40 H40       -11.2425   -4.8919   58.4073 H       1  ZINC000467104849    0.0700
     41 H41       -10.5806   -4.3982   56.8305 H       1  ZINC000467104849    0.0700
     42 H42        -8.4306   -3.0216   59.8003 H       1  ZINC000467104849    0.0800
     43 H43        -9.1528   -2.3412   58.3193 H       1  ZINC000467104849    0.1100
     44 H44        -7.1936   -1.0007   59.2200 H       1  ZINC000467104849    0.1100
     45 H45        -8.7036   -0.0678   59.0740 H       1  ZINC000467104849    0.0600
     46 H46        -7.5160   -1.2001   63.2875 H       1  ZINC000467104849    0.1500
     47 H47        -7.2270   -0.6129   65.6610 H       1  ZINC000467104849    0.1500
     48 H48       -10.9779    1.2828   63.0895 H       1  ZINC000467104849    0.1500
     49 H49       -11.3081   -1.4165   61.7967 H       1  ZINC000467104849    0.1100
     50 H50        -9.8600   -2.4105   62.1008 H       1  ZINC000467104849    0.0800
     51 H51       -11.2616   -0.1257   58.4332 H       1  ZINC000467104849    0.1400
     52 H52       -11.8428    1.8587   58.2571 H       1  ZINC000467104849    0.0600
     53 H53       -10.3488    1.6224   59.1955 H       1  ZINC000467104849    0.0600
     54 H54       -10.7435    3.2297   58.5404 H       1  ZINC000467104849    0.1000
@<TRIPOS>BOND
     1     1     2    1
     2     1    31    1
     3     1    32    1
     4     1    33    1
     5     2     3    1
     6     3    28   ar
     7     3     4   ar
     8     4     5   ar
     9     4    34    1
    10     5     6   ar
    11     5    35    1
    12     6     7    1
    13     6    27   ar
    14     7     8    1
    15     7     9    1
    16     7    10    1
    17     8    36    1
    18     8    37    1
    19     8    38    1
    20     9    39    1
    21     9    40    1
    22     9    41    1
    23    10    11    2
    24    10    12   am
    25    12    26    1
    26    12    13    1
    27    13    14    1
    28    13    42    1
    29    13    43    1
    30    14    15    1
    31    14    44    1
    32    14    45    1
    33    15    16    1
    34    16    17    1
    35    16    18    1
    36    16    26    1
    37    18    25   ar
    38    18    19   ar
    39    19    20   ar
    40    19    46    1
    41    20    21   ar
    42    20    47    1
    43    21    22    1
    44    21    23   ar
    45    23    24    1
    46    23    25   ar
    47    25    48    1
    48    26    49    1
    49    26    50    1
    50    27    28   ar
    51    27    51    1
    52    28    29    1
    53    29    30    1
    54    30    52    1
    55    30    53    1
    56    30    54    1
@<TRIPOS>SUBSTRUCTURE
     1 ZINC000467104849        1 TEMP              0 ****  ****    0 ROOT


##########                                Name:    ZINC000477589488
##########                DOCK_Rotatable_Bonds:                   6
##########                         Heavy_Atoms:                  32
##########                    Molecular_Weight:             423.517
##########                DOCK_Rotatable_Bonds:                   6
##########                       Formal_Charge:        -8.19564e-07
##########                     HBond_Acceptors:                   6
##########                        HBond_Donors:                   1
##########                         Heavy_Atoms:                  32
##########                          Grid_Score:          -29.521646
##########                     Grid_vdw_energy:          -29.456491
##########                      Grid_es_energy:           -0.065156
##########           Internal_energy_repulsive:           18.331516

@<TRIPOS>MOLECULE
ZINC000477589488
 57 61 1 0 0
SMALL
USER_CHARGES


@<TRIPOS>ATOM
      1 O1         -8.7646   -1.4777   53.8303 O.2     1  ZINC000477589488   -0.5800
      2 C2         -8.6012   -0.2791   53.9525 C.2     1  ZINC000477589488    0.7100
      3 N3         -9.0734    0.3578   55.0424 N.am    1  ZINC000477589488   -0.7400
      4 C4         -9.7890   -0.3932   56.0769 C.3     1  ZINC000477589488    0.2500
      5 H5         -9.5412   -1.4515   55.9946 H       1  ZINC000477589488    0.1100
      6 C6        -11.2736   -0.2092   55.8950 C.ar    1  ZINC000477589488   -0.0900
      7 C7        -11.8459    1.0328   56.0975 C.ar    1  ZINC000477589488   -0.1000
      8 C8        -13.2078    1.2016   55.9307 C.ar    1  ZINC000477589488   -0.1200
      9 C9        -13.9972    0.1287   55.5609 C.ar    1  ZINC000477589488   -0.1200
     10 C10       -13.4246   -1.1129   55.3575 C.ar    1  ZINC000477589488   -0.1200
     11 C11       -12.0621   -1.2809   55.5201 C.ar    1  ZINC000477589488   -0.1000
     12 C12        -9.3829    0.1134   57.4369 C.ar    1  ZINC000477589488   -0.0700
     13 C13        -9.5047   -0.7157   58.5647 C.ar    1  ZINC000477589488   -0.0400
     14 C14       -10.0024   -2.0256   58.4572 C.ar    1  ZINC000477589488   -0.1100
     15 C15       -10.1060   -2.8001   59.5714 C.ar    1  ZINC000477589488   -0.1100
     16 C16        -9.7260   -2.3139   60.8213 C.ar    1  ZINC000477589488   -0.1100
     17 C17        -9.2402   -1.0507   60.9637 C.ar    1  ZINC000477589488   -0.1100
     18 C18        -9.1178   -0.2214   59.8356 C.ar    1  ZINC000477589488   -0.0500
     19 C19        -8.6201    1.0881   59.9431 C.ar    1  ZINC000477589488   -0.1000
     20 C20        -8.5153    1.8623   58.8283 C.ar    1  ZINC000477589488   -0.1100
     21 C21        -8.8909    1.3748   57.5783 C.ar    1  ZINC000477589488   -0.1100
     22 N22        -7.9429    0.4117   53.0008 N.am    1  ZINC000477589488   -0.6300
     23 C23        -7.7236    1.8599   53.1344 C.3     1  ZINC000477589488    0.1300
     24 C24        -6.2351    2.1494   52.9133 C.3     1  ZINC000477589488    0.0500
     25 N25        -5.8129    1.5731   51.6298 N.3     1  ZINC000477589488   -0.4700
     26 C26        -4.5125    1.9529   51.3167 C.ar    1  ZINC000477589488    0.2500
     27 C27        -4.0815    1.9493   49.9906 C.ar    1  ZINC000477589488   -0.1300
     28 C28        -2.7761    2.3363   49.7316 C.ar    1  ZINC000477589488   -0.0900
     29 C29        -1.9789    2.7034   50.8065 C.ar    1  ZINC000477589488    0.0200
     30 N30        -2.4689    2.6774   52.0300 N.ar    1  ZINC000477589488   -0.2200
     31 N31        -3.6783    2.3254   52.2768 N.ar    1  ZINC000477589488   -0.2800
     32 C32        -5.9480    0.1103   51.6322 C.3     1  ZINC000477589488    0.0400
     33 C33        -7.4194   -0.2637   51.8037 C.3     1  ZINC000477589488    0.1200
     34 H34        -8.9395    1.3133   55.1419 H       1  ZINC000477589488    0.3900
     35 H35       -11.2293    1.8710   56.3865 H       1  ZINC000477589488    0.1100
     36 H36       -13.6551    2.1717   56.0896 H       1  ZINC000477589488    0.1200
     37 H37       -15.0612    0.2605   55.4313 H       1  ZINC000477589488    0.1200
     38 H38       -14.0413   -1.9513   55.0689 H       1  ZINC000477589488    0.1200
     39 H39       -11.6147   -2.2509   55.3613 H       1  ZINC000477589488    0.1200
     40 H40       -10.3014   -2.4156   57.4954 H       1  ZINC000477589488    0.1300
     41 H41       -10.4887   -3.8064   59.4861 H       1  ZINC000477589488    0.1300
     42 H42        -9.8187   -2.9493   61.6897 H       1  ZINC000477589488    0.1300
     43 H43        -8.9504   -0.6874   61.9386 H       1  ZINC000477589488    0.1300
     44 H44        -8.3227    1.4785   60.9051 H       1  ZINC000477589488    0.1300
     45 H45        -8.1328    2.8687   58.9138 H       1  ZINC000477589488    0.1300
     46 H46        -8.7973    2.0097   56.7096 H       1  ZINC000477589488    0.1200
     47 H47        -8.3147    2.3902   52.3877 H       1  ZINC000477589488    0.0800
     48 H48        -8.0151    2.1837   54.1336 H       1  ZINC000477589488    0.1100
     49 H49        -6.0723    3.2271   52.8993 H       1  ZINC000477589488    0.1000
     50 H50        -5.6542    1.7038   53.7208 H       1  ZINC000477589488    0.0600
     51 H51        -4.7441    1.6537   49.1905 H       1  ZINC000477589488    0.1500
     52 H52        -2.3905    2.3515   48.7228 H       1  ZINC000477589488    0.1500
     53 H53        -0.9568    3.0100   50.6407 H       1  ZINC000477589488    0.1700
     54 H54        -5.5770   -0.2907   50.6890 H       1  ZINC000477589488    0.1000
     55 H55        -5.3710   -0.3069   52.4574 H       1  ZINC000477589488    0.0600
     56 H56        -7.5114   -1.3434   51.9209 H       1  ZINC000477589488    0.0800
     57 H57        -7.9842    0.0621   50.9303 H       1  ZINC000477589488    0.0900
@<TRIPOS>BOND
     1     1     2    2
     2     2     3   am
     3     2    22   am
     4     3     4    1
     5     3    34    1
     6     4     5    1
     7     4     6    1
     8     4    12    1
     9     6    11   ar
    10     6     7   ar
    11     7     8   ar
    12     7    35    1
    13     8     9   ar
    14     8    36    1
    15     9    10   ar
    16     9    37    1
    17    10    11   ar
    18    10    38    1
    19    11    39    1
    20    12    21   ar
    21    12    13   ar
    22    13    18   ar
    23    13    14   ar
    24    14    15   ar
    25    14    40    1
    26    15    16   ar
    27    15    41    1
    28    16    17   ar
    29    16    42    1
    30    17    18   ar
    31    17    43    1
    32    18    19   ar
    33    19    20   ar
    34    19    44    1
    35    20    21   ar
    36    20    45    1
    37    21    46    1
    38    22    33    1
    39    22    23    1
    40    23    24    1
    41    23    47    1
    42    23    48    1
    43    24    25    1
    44    24    49    1
    45    24    50    1
    46    25    26    1
    47    25    32    1
    48    26    31   ar
    49    26    27   ar
    50    27    28   ar
    51    27    51    1
    52    28    29   ar
    53    28    52    1
    54    29    30   ar
    55    29    53    1
    56    30    31   ar
    57    32    33    1
    58    32    54    1
    59    32    55    1
    60    33    56    1
    61    33    57    1
@<TRIPOS>SUBSTRUCTURE
     1 ZINC000477589488        1 TEMP              0 ****  ****    0 ROOT


##########                                Name:    ZINC001707804910
##########                DOCK_Rotatable_Bonds:                   4
##########                         Heavy_Atoms:                  26
##########                    Molecular_Weight:             358.403
##########                DOCK_Rotatable_Bonds:                   4
##########                       Formal_Charge:          -0.0399996
##########                     HBond_Acceptors:                  10
##########                        HBond_Donors:                   0
##########                         Heavy_Atoms:                  26
##########                          Grid_Score:          -29.506950
##########                     Grid_vdw_energy:          -28.463655
##########                      Grid_es_energy:           -1.043296
##########           Internal_energy_repulsive:            8.142925

@<TRIPOS>MOLECULE
ZINC001707804910
 48 51 1 0 0
SMALL
USER_CHARGES


@<TRIPOS>ATOM
      1 C1        -14.1954   -6.2146   56.1777 C.3     1  ZINC001707804910   -0.0700
      2 C2        -13.7293   -4.8374   56.5742 C.2     1  ZINC001707804910    0.0700
      3 N3        -12.5964   -4.2818   56.2284 N.2     1  ZINC001707804910   -0.2800
      4 N4        -12.5436   -3.0036   56.7992 N.pl3   1  ZINC001707804910   -0.3700
      5 C5        -11.4460   -2.0431   56.6620 C.3     1  ZINC001707804910    0.0900
      6 C6        -13.6825   -2.8133   57.4977 C.2     1  ZINC001707804910    0.0500
      7 C7        -14.0518   -1.5762   58.2751 C.3     1  ZINC001707804910    0.1800
      8 N8        -14.0717   -1.8868   59.7066 N.pl3   1  ZINC001707804910   -0.4600
      9 C9        -15.1568   -2.2408   60.4595 C.2     1  ZINC001707804910    0.1900
     10 C10       -16.5744   -2.3873   59.9696 C.3     1  ZINC001707804910   -0.0700
     11 N11       -14.7379   -2.4288   61.6788 N.2     1  ZINC001707804910   -0.2800
     12 N12       -13.4716   -2.2192   61.7470 N.2     1  ZINC001707804910   -0.3000
     13 C13       -13.0102   -1.8885   60.5640 C.2     1  ZINC001707804910    0.3500
     14 N14       -11.6947   -1.5891   60.2471 N.3     1  ZINC001707804910   -0.4600
     15 C15       -10.8802   -2.8105   60.1702 C.3     1  ZINC001707804910    0.0200
     16 C16        -9.4524   -2.4403   59.7602 C.3     1  ZINC001707804910    0.0700
     17 O17        -8.9237   -1.4949   60.6941 O.3     1  ZINC001707804910   -0.3600
     18 C18        -9.6921   -0.2929   60.7939 C.3     1  ZINC001707804910    0.2000
     19 H19        -9.7091    0.2096   59.8267 H       1  ZINC001707804910    0.1000
     20 C20        -9.0718    0.6169   61.8228 C.2     1  ZINC001707804910    0.1600
     21 N21        -8.6297    0.2650   62.9966 N.2     1  ZINC001707804910   -0.2500
     22 N22        -8.1667    1.2993   63.6061 N.2     1  ZINC001707804910   -0.2900
     23 C23        -8.2977    2.3461   62.8419 C.2     1  ZINC001707804910    0.1700
     24 C24        -7.8811    3.7545   63.1795 C.3     1  ZINC001707804910   -0.0600
     25 O25        -8.8679    1.9388   61.6954 O.3     1  ZINC001707804910   -0.2200
     26 C26       -11.1224   -0.6414   61.2142 C.3     1  ZINC001707804910    0.0400
     27 C27       -14.4358   -3.9301   57.3705 C.2     1  ZINC001707804910   -0.2300
     28 H28       -14.7512   -6.1546   55.2420 H       1  ZINC001707804910    0.0800
     29 H29       -13.3318   -6.8666   56.0462 H       1  ZINC001707804910    0.0700
     30 H30       -14.8401   -6.6187   56.9581 H       1  ZINC001707804910    0.0800
     31 H31       -11.5656   -1.4847   55.7335 H       1  ZINC001707804910    0.0800
     32 H32       -11.4597   -1.3527   57.5055 H       1  ZINC001707804910    0.0900
     33 H33       -10.4959   -2.5770   56.6449 H       1  ZINC001707804910    0.0900
     34 H34       -13.3175   -0.7938   58.0831 H       1  ZINC001707804910    0.1100
     35 H35       -15.0384   -1.2327   57.9641 H       1  ZINC001707804910    0.1200
     36 H36       -16.7102   -3.3807   59.5419 H       1  ZINC001707804910    0.0900
     37 H37       -17.2628   -2.2538   60.8040 H       1  ZINC001707804910    0.1000
     38 H38       -16.7755   -1.6334   59.2084 H       1  ZINC001707804910    0.0700
     39 H39       -10.8641   -3.2993   61.1443 H       1  ZINC001707804910    0.0700
     40 H40       -11.3077   -3.4870   59.4300 H       1  ZINC001707804910    0.0900
     41 H41        -8.8308   -3.3357   59.7575 H       1  ZINC001707804910    0.1200
     42 H42        -9.4624   -2.0004   58.7631 H       1  ZINC001707804910    0.0700
     43 H43        -6.8520    3.9159   62.8583 H       1  ZINC001707804910    0.1000
     44 H44        -8.5362    4.4597   62.6681 H       1  ZINC001707804910    0.1000
     45 H45        -7.9536    3.9066   64.2564 H       1  ZINC001707804910    0.1100
     46 H46       -11.7265    0.2657   61.2362 H       1  ZINC001707804910    0.1000
     47 H47       -11.1102   -1.0953   62.2052 H       1  ZINC001707804910    0.0800
     48 H48       -15.4080   -4.0944   57.8112 H       1  ZINC001707804910    0.1500
@<TRIPOS>BOND
     1     1     2    1
     2     1    28    1
     3     1    29    1
     4     1    30    1
     5     2    27    1
     6     2     3    2
     7     3     4    1
     8     4     5    1
     9     4     6    1
    10     5    31    1
    11     5    32    1
    12     5    33    1
    13     6     7    1
    14     6    27    2
    15     7     8    1
    16     7    34    1
    17     7    35    1
    18     8    13    1
    19     8     9    1
    20     9    10    1
    21     9    11    2
    22    10    36    1
    23    10    37    1
    24    10    38    1
    25    11    12    1
    26    12    13    2
    27    13    14    1
    28    14    26    1
    29    14    15    1
    30    15    16    1
    31    15    39    1
    32    15    40    1
    33    16    17    1
    34    16    41    1
    35    16    42    1
    36    17    18    1
    37    18    19    1
    38    18    20    1
    39    18    26    1
    40    20    25    1
    41    20    21    2
    42    21    22    1
    43    22    23    2
    44    23    24    1
    45    23    25    1
    46    24    43    1
    47    24    44    1
    48    24    45    1
    49    26    46    1
    50    26    47    1
    51    27    48    1
@<TRIPOS>SUBSTRUCTURE
     1 ZINC001707804910        1 TEMP              0 ****  ****    0 ROOT


##########                                Name:    ZINC001386869844
##########                DOCK_Rotatable_Bonds:                   9
##########                         Heavy_Atoms:                  25
##########                    Molecular_Weight:             345.485
##########                DOCK_Rotatable_Bonds:                   9
##########                       Formal_Charge:          -0.0300003
##########                     HBond_Acceptors:                   5
##########                        HBond_Donors:                   2
##########                         Heavy_Atoms:                  25
##########                          Grid_Score:          -29.404264
##########                     Grid_vdw_energy:          -26.491272
##########                      Grid_es_energy:           -2.912992
##########           Internal_energy_repulsive:           27.880238

@<TRIPOS>MOLECULE
ZINC001386869844
 56 58 1 0 0
SMALL
USER_CHARGES


@<TRIPOS>ATOM
      1 C1         -7.2024    2.0997   64.5724 C.3     1  ZINC001386869844    0.0600
      2 N2         -7.4533    1.0977   65.6113 N.am    1  ZINC001386869844   -0.6200
      3 C3         -7.0538    1.3623   66.9957 C.3     1  ZINC001386869844    0.1100
      4 C4         -5.7260    0.6600   67.2864 C.3     1  ZINC001386869844    0.1000
      5 N5         -4.7193    1.0981   66.3165 N.am    1  ZINC001386869844   -0.7300
      6 C6         -3.4127    1.0809   66.6470 C.2     1  ZINC001386869844    0.5200
      7 O7         -3.0708    0.7075   67.7490 O.2     1  ZINC001386869844   -0.5300
      8 C8         -2.3771    1.5316   65.6492 C.3     1  ZINC001386869844   -0.1300
      9 C9         -1.9505    2.9656   65.9696 C.3     1  ZINC001386869844   -0.0100
     10 C10        -0.8355    3.3919   65.0126 C.3     1  ZINC001386869844   -0.1500
     11 C11        -3.1489    3.9027   65.8062 C.3     1  ZINC001386869844   -0.1600
     12 C12        -1.4407    3.0361   67.4104 C.3     1  ZINC001386869844   -0.1500
     13 C13        -0.0732    3.6808   67.6452 C.3     1  ZINC001386869844   -0.1900
     14 C14        -0.2378    2.1647   67.7775 C.3     1  ZINC001386869844   -0.1800
     15 C15        -8.0515   -0.0674   65.2934 C.2     1  ZINC001386869844    0.5900
     16 O16        -8.2596   -0.8998   66.1563 O.2     1  ZINC001386869844   -0.5200
     17 C17        -8.4514   -0.3322   63.9072 C.2     1  ZINC001386869844   -0.0600
     18 C18        -9.6588    0.0043   63.3286 C.2     1  ZINC001386869844   -0.0900
     19 C19        -9.6120   -0.4322   62.0071 C.2     1  ZINC001386869844   -0.1700
     20 C20        -8.4028   -1.0181   61.7999 C.2     1  ZINC001386869844    0.0500
     21 C21        -7.9750   -1.6216   60.4832 C.3     1  ZINC001386869844   -0.0600
     22 C22        -9.2236   -1.8330   59.6190 C.3     1  ZINC001386869844   -0.1100
     23 C23       -10.0440   -0.5408   59.5806 C.3     1  ZINC001386869844   -0.1200
     24 C24       -10.6835   -0.3007   60.9536 C.3     1  ZINC001386869844   -0.0500
     25 N25        -7.6879   -0.9563   62.9448 N.pl3   1  ZINC001386869844   -0.5400
     26 H26        -6.2733    1.8616   64.0546 H       1  ZINC001386869844    0.0600
     27 H27        -8.0267    2.0977   63.8591 H       1  ZINC001386869844    0.0800
     28 H28        -7.1208    3.0854   65.0304 H       1  ZINC001386869844    0.0900
     29 H29        -7.8201    0.9855   67.6732 H       1  ZINC001386869844    0.1000
     30 H30        -6.9364    2.4361   67.1411 H       1  ZINC001386869844    0.0900
     31 H31        -5.8607   -0.4188   67.2079 H       1  ZINC001386869844    0.0700
     32 H32        -5.3943    0.9125   68.2935 H       1  ZINC001386869844    0.0700
     33 H33        -4.9930    1.4007   65.4365 H       1  ZINC001386869844    0.4000
     34 H34        -1.5097    0.8738   65.7035 H       1  ZINC001386869844    0.0900
     35 H35        -2.7994    1.4939   64.6451 H       1  ZINC001386869844    0.0900
     36 H36        -1.1987    3.3416   63.9862 H       1  ZINC001386869844    0.0800
     37 H37        -0.5317    4.4135   65.2409 H       1  ZINC001386869844    0.0500
     38 H38         0.0183    2.7243   65.1290 H       1  ZINC001386869844    0.0500
     39 H39        -3.9432    3.5990   66.4880 H       1  ZINC001386869844    0.0500
     40 H40        -2.8450    4.9243   66.0345 H       1  ZINC001386869844    0.0500
     41 H41        -3.5121    3.8524   64.7798 H       1  ZINC001386869844    0.0800
     42 H42        -2.2051    3.1856   68.1729 H       1  ZINC001386869844    0.1000
     43 H43         0.4633    4.0548   66.7732 H       1  ZINC001386869844    0.1000
     44 H44         0.0620    4.2543   68.5623 H       1  ZINC001386869844    0.0900
     45 H45        -0.2107    1.7414   68.7817 H       1  ZINC001386869844    0.0900
     46 H46         0.1904    1.5413   66.9926 H       1  ZINC001386869844    0.0900
     47 H47       -10.4833    0.5095   63.8096 H       1  ZINC001386869844    0.1500
     48 H48        -7.2875   -0.9450   59.9755 H       1  ZINC001386869844    0.0800
     49 H49        -7.4848   -2.5790   60.6603 H       1  ZINC001386869844    0.0800
     50 H50        -8.9232   -2.1027   58.6066 H       1  ZINC001386869844    0.0700
     51 H51        -9.8280   -2.6343   60.0440 H       1  ZINC001386869844    0.0700
     52 H52        -9.3919    0.2964   59.3321 H       1  ZINC001386869844    0.0600
     53 H53       -10.8257   -0.6290   58.8261 H       1  ZINC001386869844    0.0700
     54 H54       -11.4641   -1.0409   61.1295 H       1  ZINC001386869844    0.0700
     55 H55       -11.1121    0.7009   60.9889 H       1  ZINC001386869844    0.0700
     56 H56        -6.7881   -1.2965   63.0691 H       1  ZINC001386869844    0.4200
@<TRIPOS>BOND
     1     1     2    1
     2     1    26    1
     3     1    27    1
     4     1    28    1
     5     2     3    1
     6     2    15   am
     7     3     4    1
     8     3    29    1
     9     3    30    1
    10     4     5    1
    11     4    31    1
    12     4    32    1
    13     5     6   am
    14     5    33    1
    15     6     7    2
    16     6     8    1
    17     8     9    1
    18     8    34    1
    19     8    35    1
    20     9    10    1
    21     9    11    1
    22     9    12    1
    23    10    36    1
    24    10    37    1
    25    10    38    1
    26    11    39    1
    27    11    40    1
    28    11    41    1
    29    12    14    1
    30    12    13    1
    31    12    42    1
    32    13    14    1
    33    13    43    1
    34    13    44    1
    35    14    45    1
    36    14    46    1
    37    15    16    2
    38    15    17    1
    39    17    25    1
    40    17    18    2
    41    18    19    1
    42    18    47    1
    43    19    24    1
    44    19    20    2
    45    20    21    1
    46    20    25    1
    47    21    22    1
    48    21    48    1
    49    21    49    1
    50    22    23    1
    51    22    50    1
    52    22    51    1
    53    23    24    1
    54    23    52    1
    55    23    53    1
    56    24    54    1
    57    24    55    1
    58    25    56    1
@<TRIPOS>SUBSTRUCTURE
     1 ZINC001386869844        1 TEMP              0 ****  ****    0 ROOT


##########                                Name:    ZINC001345266033
##########                DOCK_Rotatable_Bonds:                   4
##########                         Heavy_Atoms:                  29
##########                    Molecular_Weight:               389.5
##########                DOCK_Rotatable_Bonds:                   4
##########                       Formal_Charge:          -0.0100001
##########                     HBond_Acceptors:                   6
##########                        HBond_Donors:                   0
##########                         Heavy_Atoms:                  29
##########                          Grid_Score:          -29.399197
##########                     Grid_vdw_energy:          -28.855635
##########                      Grid_es_energy:           -0.543562
##########           Internal_energy_repulsive:           10.267238

@<TRIPOS>MOLECULE
ZINC001345266033
 56 61 1 0 0
SMALL
USER_CHARGES


@<TRIPOS>ATOM
      1 C1          3.0272    0.9228   41.6282 C.ar    1  ZINC001345266033   -0.1100
      2 C2          2.8945    1.7777   42.7192 C.ar    1  ZINC001345266033   -0.0900
      3 C3          1.7130    1.8747   43.3952 C.ar    1  ZINC001345266033   -0.1100
      4 C4          0.6223    1.1047   42.9846 C.ar    1  ZINC001345266033    0.0000
      5 C5          0.7528    0.2327   41.8732 C.ar    1  ZINC001345266033   -0.1100
      6 C6          1.9830    0.1581   41.2019 C.ar    1  ZINC001345266033   -0.0900
      7 C7         -0.3596   -0.5295   41.4815 C.ar    1  ZINC001345266033    0.1700
      8 N8         -1.4978   -0.4407   42.1264 N.ar    1  ZINC001345266033   -0.4800
      9 C9         -1.6907    0.3498   43.1691 C.ar    1  ZINC001345266033    0.0900
     10 C10        -0.6735    1.1576   43.6606 C.ar    1  ZINC001345266033   -0.0700
     11 C11        -0.8924    2.0380   44.8240 C.2     1  ZINC001345266033    0.2300
     12 N12        -1.6610    3.1030   44.8642 N.2     1  ZINC001345266033   -0.2600
     13 N13        -1.6179    3.6301   46.0354 N.2     1  ZINC001345266033   -0.3000
     14 C14        -0.8199    2.9349   46.8144 C.2     1  ZINC001345266033    0.3600
     15 N15        -0.5295    3.2034   48.1404 N.3     1  ZINC001345266033   -0.4600
     16 C16         0.7600    3.8932   48.2672 C.3     1  ZINC001345266033    0.0600
     17 C17         1.1609    3.9807   49.7411 C.3     1  ZINC001345266033   -0.1100
     18 C18         0.1170    4.8094   50.4992 C.3     1  ZINC001345266033   -0.0800
     19 C19        -1.2658    4.1995   50.2459 C.3     1  ZINC001345266033   -0.1300
     20 C20        -1.7927    3.1865   51.2610 C.3     1  ZINC001345266033   -0.1600
     21 C21        -2.4001    4.5895   51.1919 C.3     1  ZINC001345266033   -0.1700
     22 C22        -1.6102    3.9765   48.7704 C.3     1  ZINC001345266033    0.1100
     23 N23        -0.3349    1.8957   46.0744 N.pl3   1  ZINC001345266033   -0.4600
     24 C24         0.5925    0.8513   46.5164 C.3     1  ZINC001345266033    0.1000
     25 C25        -0.0775   -0.0022   47.5951 C.3     1  ZINC001345266033   -0.1400
     26 H26        -0.2885    0.5989   48.4795 H       1  ZINC001345266033    0.1000
     27 C27         0.8170   -1.2112   47.9625 C.3     1  ZINC001345266033   -0.1500
     28 C28        -0.2224   -2.3517   48.1084 C.3     1  ZINC001345266033    0.0500
     29 O29        -1.1842   -2.0656   47.0702 O.3     1  ZINC001345266033   -0.3700
     30 C30        -1.3726   -0.6375   47.0532 C.3     1  ZINC001345266033    0.0300
     31 H31         3.9723    0.8682   41.1082 H       1  ZINC001345266033    0.1300
     32 H32         3.7388    2.3724   43.0353 H       1  ZINC001345266033    0.1300
     33 H33         1.6222    2.5408   44.2404 H       1  ZINC001345266033    0.1600
     34 H34         2.1010   -0.4999   40.3537 H       1  ZINC001345266033    0.1400
     35 H35        -0.2766   -1.1979   40.6372 H       1  ZINC001345266033    0.1700
     36 H36        -2.6587    0.3678   43.6477 H       1  ZINC001345266033    0.1700
     37 H37         1.5217    3.3408   47.7170 H       1  ZINC001345266033    0.0700
     38 H38         0.6750    4.8985   47.8549 H       1  ZINC001345266033    0.0500
     39 H39         1.2081    2.9780   50.1659 H       1  ZINC001345266033    0.0800
     40 H40         2.1366    4.4590   49.8254 H       1  ZINC001345266033    0.0800
     41 H41         0.3368    4.7875   51.5666 H       1  ZINC001345266033    0.0700
     42 H42         0.1348    5.8382   50.1397 H       1  ZINC001345266033    0.0700
     43 H43        -2.3925    2.3591   50.8818 H       1  ZINC001345266033    0.0900
     44 H44        -1.1581    2.9543   52.1163 H       1  ZINC001345266033    0.0900
     45 H45        -2.1651    5.2803   52.0016 H       1  ZINC001345266033    0.1000
     46 H46        -3.3994    4.6851   50.7671 H       1  ZINC001345266033    0.1000
     47 H47        -1.7103    4.9392   48.2693 H       1  ZINC001345266033    0.0600
     48 H48        -2.5468    3.4240   48.6937 H       1  ZINC001345266033    0.0800
     49 H49         0.8604    0.2207   45.6686 H       1  ZINC001345266033    0.1100
     50 H50         1.4916    1.3127   46.9246 H       1  ZINC001345266033    0.1100
     51 H51         1.5241   -1.4293   47.1623 H       1  ZINC001345266033    0.0800
     52 H52         1.3384   -1.0374   48.9039 H       1  ZINC001345266033    0.0900
     53 H53         0.2459   -3.3216   47.9410 H       1  ZINC001345266033    0.1000
     54 H54        -0.6953   -2.3169   49.0899 H       1  ZINC001345266033    0.0600
     55 H55        -2.2157   -0.3674   47.6890 H       1  ZINC001345266033    0.0600
     56 H56        -1.5521   -0.2995   46.0326 H       1  ZINC001345266033    0.0900
@<TRIPOS>BOND
     1     1     6   ar
     2     1     2   ar
     3     1    31    1
     4     2     3   ar
     5     2    32    1
     6     3     4   ar
     7     3    33    1
     8     4    10   ar
     9     4     5   ar
    10     5     6   ar
    11     5     7   ar
    12     6    34    1
    13     7     8   ar
    14     7    35    1
    15     8     9   ar
    16     9    10   ar
    17     9    36    1
    18    10    11    1
    19    11    23    1
    20    11    12    2
    21    12    13    1
    22    13    14    2
    23    14    15    1
    24    14    23    1
    25    15    22    1
    26    15    16    1
    27    16    17    1
    28    16    37    1
    29    16    38    1
    30    17    18    1
    31    17    39    1
    32    17    40    1
    33    18    19    1
    34    18    41    1
    35    18    42    1
    36    19    21    1
    37    19    20    1
    38    19    22    1
    39    20    21    1
    40    20    43    1
    41    20    44    1
    42    21    45    1
    43    21    46    1
    44    22    47    1
    45    22    48    1
    46    23    24    1
    47    24    25    1
    48    24    49    1
    49    24    50    1
    50    25    26    1
    51    25    30    1
    52    25    27    1
    53    27    28    1
    54    27    51    1
    55    27    52    1
    56    28    29    1
    57    28    53    1
    58    28    54    1
    59    29    30    1
    60    30    55    1
    61    30    56    1
@<TRIPOS>SUBSTRUCTURE
     1 ZINC001345266033        1 TEMP              0 ****  ****    0 ROOT


##########                                Name:    ZINC000011157684
##########                DOCK_Rotatable_Bonds:                   7
##########                         Heavy_Atoms:                  25
##########                    Molecular_Weight:             374.866
##########                DOCK_Rotatable_Bonds:                   7
##########                       Formal_Charge:           0.0400001
##########                     HBond_Acceptors:                   6
##########                        HBond_Donors:                   2
##########                         Heavy_Atoms:                  25
##########                          Grid_Score:          -29.393011
##########                     Grid_vdw_energy:          -28.833906
##########                      Grid_es_energy:           -0.559105
##########           Internal_energy_repulsive:            8.406602

@<TRIPOS>MOLECULE
ZINC000011157684
 41 43 1 0 0
SMALL
USER_CHARGES


@<TRIPOS>ATOM
      1 O1         -3.7690    3.9436   50.2312 O.2     1  ZINC000011157684   -0.5200
      2 C2         -4.0244    2.7583   50.2582 C.2     1  ZINC000011157684    0.5100
      3 C3         -3.5997    1.8698   49.1175 C.3     1  ZINC000011157684    0.1000
      4 N4         -2.1628    2.0311   48.8817 N.pl3   1  ZINC000011157684   -0.7300
      5 C5         -1.3831    0.9243   48.5294 C.ar    1  ZINC000011157684    0.2200
      6 C6         -1.6626    0.2187   47.3673 C.ar    1  ZINC000011157684   -0.1600
      7 C7         -0.8911   -0.8740   47.0208 C.ar    1  ZINC000011157684   -0.0900
      8 C8          0.1601   -1.2660   47.8319 C.ar    1  ZINC000011157684    0.0500
      9 F9          0.9126   -2.3350   47.4912 F       1  ZINC000011157684   -0.1400
     10 C10         0.4417   -0.5638   48.9919 C.ar    1  ZINC000011157684   -0.0900
     11 C11        -0.3238    0.5328   49.3398 C.ar    1  ZINC000011157684   -0.0900
     12 Cl12        0.0293    1.4130   50.7938 Cl      1  ZINC000011157684   -0.0500
     13 N13        -4.6831    2.2347   51.3111 N.am    1  ZINC000011157684   -0.7200
     14 C14        -5.0959    3.0985   52.4199 C.3     1  ZINC000011157684    0.2600
     15 H15        -5.2812    4.1057   52.0465 H       1  ZINC000011157684    0.1200
     16 C16        -4.0039    3.1404   53.4576 C.2     1  ZINC000011157684   -0.1900
     17 C17        -4.1946    3.2944   54.7688 C.2     1  ZINC000011157684   -0.1200
     18 C18        -3.0380    3.3018   55.5294 C.2     1  ZINC000011157684   -0.1300
     19 C19        -1.9082    3.1539   54.8359 C.2     1  ZINC000011157684   -0.2100
     20 S20        -2.2835    2.9863   53.1257 S.3     1  ZINC000011157684    0.1100
     21 C21        -6.3568    2.5527   53.0393 C.ar    1  ZINC000011157684   -0.0900
     22 C22        -6.5797    1.1887   53.0649 C.ar    1  ZINC000011157684   -0.1100
     23 C23        -7.7363    0.6881   53.6331 C.ar    1  ZINC000011157684   -0.1100
     24 C24        -8.6695    1.5513   54.1760 C.ar    1  ZINC000011157684   -0.1100
     25 C25        -8.4460    2.9152   54.1511 C.ar    1  ZINC000011157684   -0.1100
     26 C26        -7.2875    3.4157   53.5868 C.ar    1  ZINC000011157684   -0.1000
     27 H27        -3.8123    0.8304   49.3679 H       1  ZINC000011157684    0.1000
     28 H28        -4.1489    2.1463   48.2175 H       1  ZINC000011157684    0.1000
     29 H29        -1.7521    2.9055   48.9697 H       1  ZINC000011157684    0.4200
     30 H30        -2.4829    0.5234   46.7342 H       1  ZINC000011157684    0.1400
     31 H31        -1.1084   -1.4229   46.1166 H       1  ZINC000011157684    0.1400
     32 H32         1.2625   -0.8711   49.6231 H       1  ZINC000011157684    0.1500
     33 H33        -4.8838    1.2860   51.3344 H       1  ZINC000011157684    0.4000
     34 H34        -5.1768    3.4052   55.2039 H       1  ZINC000011157684    0.1400
     35 H35        -3.0497    3.4188   56.6030 H       1  ZINC000011157684    0.1400
     36 H36        -0.9151    3.1361   55.2600 H       1  ZINC000011157684    0.1700
     37 H37        -5.8507    0.5142   52.6408 H       1  ZINC000011157684    0.1200
     38 H38        -7.9108   -0.3777   53.6525 H       1  ZINC000011157684    0.1300
     39 H39        -9.5734    1.1601   54.6192 H       1  ZINC000011157684    0.1300
     40 H40        -9.1752    3.5897   54.5750 H       1  ZINC000011157684    0.1300
     41 H41        -7.1129    4.4813   53.5675 H       1  ZINC000011157684    0.1300
@<TRIPOS>BOND
     1     1     2    2
     2     2     3    1
     3     2    13   am
     4     3     4    1
     5     3    27    1
     6     3    28    1
     7     4     5    1
     8     4    29    1
     9     5    11   ar
    10     5     6   ar
    11     6     7   ar
    12     6    30    1
    13     7     8   ar
    14     7    31    1
    15     8     9    1
    16     8    10   ar
    17    10    11   ar
    18    10    32    1
    19    11    12    1
    20    13    14    1
    21    13    33    1
    22    14    15    1
    23    14    16    1
    24    14    21    1
    25    16    20    1
    26    16    17    2
    27    17    18    1
    28    17    34    1
    29    18    19    2
    30    18    35    1
    31    19    20    1
    32    19    36    1
    33    21    26   ar
    34    21    22   ar
    35    22    23   ar
    36    22    37    1
    37    23    24   ar
    38    23    38    1
    39    24    25   ar
    40    24    39    1
    41    25    26   ar
    42    25    40    1
    43    26    41    1
@<TRIPOS>SUBSTRUCTURE
     1 ZINC000011157684        1 TEMP              0 ****  ****    0 ROOT


##########                                Name:    ZINC000482540246
##########                DOCK_Rotatable_Bonds:                  10
##########                         Heavy_Atoms:                  30
##########                    Molecular_Weight:              409.46
##########                DOCK_Rotatable_Bonds:                  10
##########                       Formal_Charge:         2.83122e-07
##########                     HBond_Acceptors:                   7
##########                        HBond_Donors:                   2
##########                         Heavy_Atoms:                  30
##########                          Grid_Score:          -29.392647
##########                     Grid_vdw_energy:          -29.570007
##########                      Grid_es_energy:            0.177361
##########           Internal_energy_repulsive:           28.490286

@<TRIPOS>MOLECULE
ZINC000482540246
 54 56 1 0 0
SMALL
USER_CHARGES


@<TRIPOS>ATOM
      1 C1         -8.7322    2.5809   60.4891 C.3     1  ZINC000482540246    0.0400
      2 O2         -9.7076    1.9938   59.6253 O.3     1  ZINC000482540246   -0.3100
      3 C3         -9.5532    0.6797   59.3251 C.ar    1  ZINC000482540246    0.3300
      4 C4        -10.4159    0.0750   58.4203 C.ar    1  ZINC000482540246   -0.1800
      5 C5        -10.2477   -1.2663   58.1226 C.ar    1  ZINC000482540246   -0.0100
      6 C6        -11.1623   -1.9596   57.1458 C.3     1  ZINC000482540246    0.2000
      7 H7        -11.9300   -1.2628   56.8096 H       1  ZINC000482540246    0.1000
      8 C8        -11.8247   -3.1575   57.8293 C.3     1  ZINC000482540246   -0.1600
      9 N9        -10.3850   -2.4230   55.9937 N.am    1  ZINC000482540246   -0.7400
     10 C10       -10.0466   -1.5580   55.0172 C.2     1  ZINC000482540246    0.7100
     11 O11       -10.3876   -0.3933   55.0916 O.2     1  ZINC000482540246   -0.5800
     12 N12        -9.3301   -1.9839   53.9580 N.am    1  ZINC000482540246   -0.7400
     13 C13        -8.9607   -1.0432   52.8975 C.3     1  ZINC000482540246    0.2100
     14 H14        -8.4875   -1.5857   52.0790 H       1  ZINC000482540246    0.1200
     15 C15        -7.9837   -0.0055   53.4537 C.3     1  ZINC000482540246    0.0500
     16 O16        -7.6210    0.9103   52.4185 O.3     1  ZINC000482540246   -0.3000
     17 C17        -6.5886    1.7565   52.6768 C.ar    1  ZINC000482540246    0.1000
     18 C18        -6.7028    2.7048   53.6813 C.ar    1  ZINC000482540246   -0.1800
     19 C19        -5.6518    3.5637   53.9426 C.ar    1  ZINC000482540246   -0.0900
     20 C20        -4.4868    3.4785   53.2037 C.ar    1  ZINC000482540246   -0.1300
     21 C21        -4.3689    2.5340   52.2003 C.ar    1  ZINC000482540246   -0.1200
     22 C22        -5.4150    1.6683   51.9383 C.ar    1  ZINC000482540246    0.0700
     23 F23        -5.3001    0.7456   50.9581 F       1  ZINC000482540246   -0.1300
     24 C24       -10.1975   -0.3474   52.3901 C.ar    1  ZINC000482540246   -0.1000
     25 C25       -11.0701   -1.0139   51.5502 C.ar    1  ZINC000482540246   -0.0800
     26 C26       -12.2045   -0.3755   51.0848 C.ar    1  ZINC000482540246   -0.1200
     27 C27       -12.4666    0.9290   51.4596 C.ar    1  ZINC000482540246   -0.1200
     28 C28       -11.5944    1.5951   52.3001 C.ar    1  ZINC000482540246   -0.1200
     29 C29       -10.4622    0.9554   52.7690 C.ar    1  ZINC000482540246   -0.1000
     30 C30        -9.2174   -1.9580   58.7438 C.ar    1  ZINC000482540246   -0.2100
     31 C31        -8.3971   -1.2927   59.6335 C.ar    1  ZINC000482540246    0.1500
     32 N32        -8.5791   -0.0119   59.8930 N.ar    1  ZINC000482540246   -0.5400
     33 H33        -8.9729    3.6321   60.6474 H       1  ZINC000482540246    0.1000
     34 H34        -8.7339    2.0596   61.4464 H       1  ZINC000482540246    0.0600
     35 H35        -7.7459    2.4987   60.0323 H       1  ZINC000482540246    0.0600
     36 H36       -11.2077    0.6436   57.9553 H       1  ZINC000482540246    0.1500
     37 H37       -11.0569   -3.8542   58.1655 H       1  ZINC000482540246    0.0600
     38 H38       -12.4029   -2.8125   58.6865 H       1  ZINC000482540246    0.0700
     39 H39       -12.4862   -3.6588   57.1228 H       1  ZINC000482540246    0.0700
     40 H40       -10.1139   -3.3524   55.9337 H       1  ZINC000482540246    0.4000
     41 H41        -9.0590   -2.9133   53.8980 H       1  ZINC000482540246    0.4000
     42 H42        -8.4579    0.5387   54.2706 H       1  ZINC000482540246    0.0800
     43 H43        -7.0902   -0.5089   53.8229 H       1  ZINC000482540246    0.0800
     44 H44        -7.6126    2.7728   54.2592 H       1  ZINC000482540246    0.1400
     45 H45        -5.7411    4.3028   54.7251 H       1  ZINC000482540246    0.1300
     46 H46        -3.6673    4.1508   53.4101 H       1  ZINC000482540246    0.1400
     47 H47        -3.4577    2.4697   51.6240 H       1  ZINC000482540246    0.1400
     48 H48       -10.8653   -2.0330   51.2575 H       1  ZINC000482540246    0.1200
     49 H49       -12.8859   -0.8960   50.4281 H       1  ZINC000482540246    0.1200
     50 H50       -13.3525    1.4278   51.0954 H       1  ZINC000482540246    0.1200
     51 H51       -11.7989    2.6143   52.5927 H       1  ZINC000482540246    0.1200
     52 H52        -9.7808    1.4758   53.4257 H       1  ZINC000482540246    0.1200
     53 H53        -9.0589   -3.0055   58.5340 H       1  ZINC000482540246    0.1400
     54 H54        -7.5939   -1.8263   60.1196 H       1  ZINC000482540246    0.1600
@<TRIPOS>BOND
     1     1     2    1
     2     1    33    1
     3     1    34    1
     4     1    35    1
     5     2     3    1
     6     3    32   ar
     7     3     4   ar
     8     4     5   ar
     9     4    36    1
    10     5     6    1
    11     5    30   ar
    12     6     7    1
    13     6     8    1
    14     6     9    1
    15     8    37    1
    16     8    38    1
    17     8    39    1
    18     9    10   am
    19     9    40    1
    20    10    11    2
    21    10    12   am
    22    12    13    1
    23    12    41    1
    24    13    14    1
    25    13    15    1
    26    13    24    1
    27    15    16    1
    28    15    42    1
    29    15    43    1
    30    16    17    1
    31    17    22   ar
    32    17    18   ar
    33    18    19   ar
    34    18    44    1
    35    19    20   ar
    36    19    45    1
    37    20    21   ar
    38    20    46    1
    39    21    22   ar
    40    21    47    1
    41    22    23    1
    42    24    29   ar
    43    24    25   ar
    44    25    26   ar
    45    25    48    1
    46    26    27   ar
    47    26    49    1
    48    27    28   ar
    49    27    50    1
    50    28    29   ar
    51    28    51    1
    52    29    52    1
    53    30    31   ar
    54    30    53    1
    55    31    32   ar
    56    31    54    1
@<TRIPOS>SUBSTRUCTURE
     1 ZINC000482540246        1 TEMP              0 ****  ****    0 ROOT


##########                                Name:    ZINC000461336108
##########                DOCK_Rotatable_Bonds:                   5
##########                         Heavy_Atoms:                  26
##########                    Molecular_Weight:             373.522
##########                DOCK_Rotatable_Bonds:                   5
##########                       Formal_Charge:        -3.42727e-07
##########                     HBond_Acceptors:                   7
##########                        HBond_Donors:                   0
##########                         Heavy_Atoms:                  26
##########                          Grid_Score:          -29.355145
##########                     Grid_vdw_energy:          -30.110497
##########                      Grid_es_energy:            0.755352
##########           Internal_energy_repulsive:           12.551631

@<TRIPOS>MOLECULE
ZINC000461336108
 53 56 1 0 0
SMALL
USER_CHARGES


@<TRIPOS>ATOM
      1 C1         -8.6192    0.9061   55.2719 C.3     1  ZINC000461336108   -0.1300
      2 C2         -8.8743    0.5752   53.8000 C.3     1  ZINC000461336108    0.0700
      3 H3         -9.5980    1.2803   53.3909 H       1  ZINC000461336108    0.0800
      4 C4         -7.5860    0.6825   53.0343 C.2     1  ZINC000461336108    0.5300
      5 O5         -6.8496    1.6184   53.2639 O.2     1  ZINC000461336108   -0.5300
      6 N6         -7.2170   -0.2111   52.1104 N.am    1  ZINC000461336108   -0.6100
      7 C7         -5.9581    0.0034   51.3927 C.3     1  ZINC000461336108    0.0700
      8 C8         -8.0129   -1.3912   51.7854 C.3     1  ZINC000461336108    0.1200
      9 C9         -9.4482   -1.2090   52.2825 C.3     1  ZINC000461336108    0.0400
     10 N10        -9.4079   -0.7892   53.6922 N.3     1  ZINC000461336108   -0.4300
     11 C11       -10.6635   -0.8755   54.2722 C.2     1  ZINC000461336108    0.3300
     12 N12       -11.6531   -0.0274   54.1199 N.2     1  ZINC000461336108   -0.2500
     13 N13       -12.6708   -0.4167   54.8014 N.2     1  ZINC000461336108   -0.2800
     14 C14       -12.3933   -1.5271   55.4240 C.2     1  ZINC000461336108    0.2000
     15 C15       -13.3208   -2.3026   56.3236 C.3     1  ZINC000461336108   -0.0300
     16 C16       -14.2695   -1.3352   57.0338 C.3     1  ZINC000461336108   -0.0900
     17 C17       -15.1633   -2.0962   58.0444 C.3     1  ZINC000461336108   -0.1200
     18 C18       -15.5696   -0.9859   59.0451 C.3     1  ZINC000461336108   -0.1200
     19 C19       -14.3009   -0.1194   59.1843 C.3     1  ZINC000461336108   -0.1300
     20 C20       -13.4744   -0.3414   57.9056 C.3     1  ZINC000461336108   -0.1200
     21 N21       -11.1063   -1.8617   55.1049 N.pl3   1  ZINC000461336108   -0.4900
     22 C22       -10.3558   -3.0315   55.5679 C.3     1  ZINC000461336108    0.1700
     23 C23       -10.1851   -2.9591   57.0635 C.2     1  ZINC000461336108   -0.2400
     24 C24        -9.6942   -1.9142   57.7317 C.2     1  ZINC000461336108   -0.0900
     25 C25        -9.6319   -2.0770   59.1049 C.2     1  ZINC000461336108   -0.1400
     26 C26       -10.0721   -3.2542   59.5518 C.2     1  ZINC000461336108   -0.2000
     27 S27       -10.6096   -4.2365   58.1954 S.3     1  ZINC000461336108    0.1200
     28 H28        -7.8956    0.2019   55.6825 H       1  ZINC000461336108    0.0800
     29 H29        -8.2268    1.9196   55.3538 H       1  ZINC000461336108    0.0800
     30 H30        -9.5538    0.8324   55.8280 H       1  ZINC000461336108    0.0700
     31 H31        -5.4883    0.9201   51.7492 H       1  ZINC000461336108    0.0900
     32 H32        -5.2904   -0.8397   51.5703 H       1  ZINC000461336108    0.0700
     33 H33        -6.1587    0.0894   50.3248 H       1  ZINC000461336108    0.0600
     34 H34        -8.0200   -1.5364   50.7051 H       1  ZINC000461336108    0.0900
     35 H35        -7.5732   -2.2668   52.2632 H       1  ZINC000461336108    0.0900
     36 H36        -9.9473   -0.4449   51.6863 H       1  ZINC000461336108    0.0500
     37 H37        -9.9873   -2.1525   52.1969 H       1  ZINC000461336108    0.1100
     38 H38       -13.9000   -3.0076   55.7274 H       1  ZINC000461336108    0.0800
     39 H39       -12.7363   -2.8480   57.0647 H       1  ZINC000461336108    0.1000
     40 H40       -14.8816   -0.8004   56.3075 H       1  ZINC000461336108    0.0900
     41 H41       -16.0415   -2.5095   57.5485 H       1  ZINC000461336108    0.0600
     42 H42       -14.5969   -2.8805   58.5466 H       1  ZINC000461336108    0.0600
     43 H43       -16.3934   -0.3947   58.6452 H       1  ZINC000461336108    0.0700
     44 H44       -15.8424   -1.4204   60.0068 H       1  ZINC000461336108    0.0700
     45 H45       -14.5748    0.9318   59.2741 H       1  ZINC000461336108    0.0700
     46 H46       -13.7289   -0.4326   60.0577 H       1  ZINC000461336108    0.0600
     47 H47       -12.5012   -0.7623   58.1584 H       1  ZINC000461336108    0.0700
     48 H48       -13.3471    0.6020   57.3748 H       1  ZINC000461336108    0.0700
     49 H49       -10.9009   -3.9390   55.3080 H       1  ZINC000461336108    0.1200
     50 H50        -9.3760   -3.0468   55.0907 H       1  ZINC000461336108    0.1000
     51 H51        -9.3697   -1.0098   57.2386 H       1  ZINC000461336108    0.1400
     52 H52        -9.2551   -1.3093   59.7644 H       1  ZINC000461336108    0.1500
     53 H53       -10.0980   -3.5565   60.5883 H       1  ZINC000461336108    0.1700
@<TRIPOS>BOND
     1     1     2    1
     2     1    28    1
     3     1    29    1
     4     1    30    1
     5     2     3    1
     6     2    10    1
     7     2     4    1
     8     4     5    2
     9     4     6   am
    10     6     7    1
    11     6     8    1
    12     7    31    1
    13     7    32    1
    14     7    33    1
    15     8     9    1
    16     8    34    1
    17     8    35    1
    18     9    10    1
    19     9    36    1
    20     9    37    1
    21    10    11    1
    22    11    21    1
    23    11    12    2
    24    12    13    1
    25    13    14    2
    26    14    15    1
    27    14    21    1
    28    15    16    1
    29    15    38    1
    30    15    39    1
    31    16    20    1
    32    16    17    1
    33    16    40    1
    34    17    18    1
    35    17    41    1
    36    17    42    1
    37    18    19    1
    38    18    43    1
    39    18    44    1
    40    19    20    1
    41    19    45    1
    42    19    46    1
    43    20    47    1
    44    20    48    1
    45    21    22    1
    46    22    23    1
    47    22    49    1
    48    22    50    1
    49    23    27    1
    50    23    24    2
    51    24    25    1
    52    24    51    1
    53    25    26    2
    54    25    52    1
    55    26    27    1
    56    26    53    1
@<TRIPOS>SUBSTRUCTURE
     1 ZINC000461336108        1 TEMP              0 ****  ****    0 ROOT


##########                                Name:    ZINC000842947763
##########                DOCK_Rotatable_Bonds:                   7
##########                         Heavy_Atoms:                  24
##########                    Molecular_Weight:             365.373
##########                DOCK_Rotatable_Bonds:                   7
##########                       Formal_Charge:          0.00999997
##########                     HBond_Acceptors:                   9
##########                        HBond_Donors:                   0
##########                         Heavy_Atoms:                  24
##########                          Grid_Score:          -29.338696
##########                     Grid_vdw_energy:          -28.172440
##########                      Grid_es_energy:           -1.166256
##########           Internal_energy_repulsive:           32.293987

@<TRIPOS>MOLECULE
ZINC000842947763
 42 43 1 0 0
SMALL
USER_CHARGES


@<TRIPOS>ATOM
      1 C1         -9.9345    0.6581   63.2282 C.3     1  ZINC000842947763   -0.1600
      2 C2         -8.6078    0.1989   62.6202 C.3     1  ZINC000842947763   -0.1000
      3 H3         -8.1806    1.0074   62.0272 H       1  ZINC000842947763    0.1000
      4 C4         -8.8514   -1.0172   61.7240 C.3     1  ZINC000842947763    0.0800
      5 O5         -9.2314   -0.5710   60.3956 O.3     1  ZINC000842947763   -0.3500
      6 C6         -9.3832   -1.5205   59.4514 C.2     1  ZINC000842947763    0.5200
      7 O7         -9.6830   -2.6536   59.7720 O.2     1  ZINC000842947763   -0.5100
      8 C8         -9.1854   -1.1846   58.0301 C.ar    1  ZINC000842947763   -0.1600
      9 C9         -9.7551   -1.9816   57.0321 C.ar    1  ZINC000842947763   -0.0200
     10 C10        -9.5672   -1.6629   55.7092 C.ar    1  ZINC000842947763   -0.1700
     11 C11        -8.8068   -0.5427   55.3522 C.ar    1  ZINC000842947763    0.2000
     12 C12        -8.2447    0.2433   56.3514 C.ar    1  ZINC000842947763   -0.1500
     13 C13        -8.4316   -0.0637   57.6698 C.ar    1  ZINC000842947763   -0.0100
     14 C14        -7.4836    1.3758   55.6981 C.3     1  ZINC000842947763   -0.0800
     15 C15        -7.6756    1.1472   54.1900 C.3     1  ZINC000842947763    0.1100
     16 N16        -8.5035   -0.0570   54.0860 N.am    1  ZINC000842947763   -0.9400
     17 S17        -9.0052   -0.7413   52.6640 S.o2    1  ZINC000842947763    2.6100
     18 C18        -7.4684   -1.1614   51.7967 C.3     1  ZINC000842947763   -0.6700
     19 O19        -9.6899   -1.9203   53.0648 O.2     1  ZINC000842947763   -0.9300
     20 O20        -9.6865    0.3085   51.9910 O.2     1  ZINC000842947763   -0.9400
     21 C21        -7.6372   -0.1797   63.7406 C.3     1  ZINC000842947763   -0.1600
     22 C22        -7.3983    1.0346   64.6403 C.3     1  ZINC000842947763    0.4600
     23 F23        -8.4103    1.1078   65.6034 F       1  ZINC000842947763   -0.1800
     24 F24        -6.1583    0.9077   65.2755 F       1  ZINC000842947763   -0.1800
     25 F25        -7.4077    2.1988   63.8645 F       1  ZINC000842947763   -0.1800
     26 H26        -9.7866    1.6027   63.7516 H       1  ZINC000842947763    0.0700
     27 H27       -10.6701    0.7934   62.4352 H       1  ZINC000842947763    0.0700
     28 H28       -10.2921   -0.0945   63.9309 H       1  ZINC000842947763    0.0600
     29 H29        -7.9392   -1.6105   61.6609 H       1  ZINC000842947763    0.0800
     30 H30        -9.6518   -1.6250   62.1460 H       1  ZINC000842947763    0.0800
     31 H31       -10.3421   -2.8473   57.3013 H       1  ZINC000842947763    0.1500
     32 H32       -10.0082   -2.2799   54.9402 H       1  ZINC000842947763    0.1500
     33 H33        -7.9890    0.5565   58.4352 H       1  ZINC000842947763    0.1400
     34 H34        -7.9036    2.3371   55.9940 H       1  ZINC000842947763    0.1000
     35 H35        -6.4266    1.3247   55.9595 H       1  ZINC000842947763    0.1000
     36 H36        -8.1877    1.9981   53.7408 H       1  ZINC000842947763    0.1000
     37 H37        -6.7121    0.9865   53.7062 H       1  ZINC000842947763    0.0900
     38 H38        -6.8887   -1.8587   52.4018 H       1  ZINC000842947763    0.1300
     39 H39        -7.7065   -1.6229   50.8383 H       1  ZINC000842947763    0.1400
     40 H40        -6.8863   -0.2552   51.6291 H       1  ZINC000842947763    0.1300
     41 H41        -8.0626   -0.9911   64.3311 H       1  ZINC000842947763    0.1200
     42 H42        -6.6906   -0.5029   63.3076 H       1  ZINC000842947763    0.1100
@<TRIPOS>BOND
     1     1     2    1
     2     1    26    1
     3     1    27    1
     4     1    28    1
     5     2     3    1
     6     2     4    1
     7     2    21    1
     8     4     5    1
     9     4    29    1
    10     4    30    1
    11     5     6    1
    12     6     7    2
    13     6     8    1
    14     8    13   ar
    15     8     9   ar
    16     9    10   ar
    17     9    31    1
    18    10    11   ar
    19    10    32    1
    20    11    16    1
    21    11    12   ar
    22    12    13   ar
    23    12    14    1
    24    13    33    1
    25    14    15    1
    26    14    34    1
    27    14    35    1
    28    15    16    1
    29    15    36    1
    30    15    37    1
    31    16    17   am
    32    17    18    1
    33    17    19    2
    34    17    20    2
    35    18    38    1
    36    18    39    1
    37    18    40    1
    38    21    22    1
    39    21    41    1
    40    21    42    1
    41    22    23    1
    42    22    24    1
    43    22    25    1
@<TRIPOS>SUBSTRUCTURE
     1 ZINC000842947763        1 TEMP              0 ****  ****    0 ROOT


##########                                Name:    ZINC001045438664
##########                DOCK_Rotatable_Bonds:                   6
##########                         Heavy_Atoms:                  26
##########                    Molecular_Weight:             352.439
##########                DOCK_Rotatable_Bonds:                   6
##########                       Formal_Charge:          -0.0099999
##########                     HBond_Acceptors:                   7
##########                        HBond_Donors:                   2
##########                         Heavy_Atoms:                  26
##########                          Grid_Score:          -29.328930
##########                     Grid_vdw_energy:          -28.817511
##########                      Grid_es_energy:           -0.511419
##########           Internal_energy_repulsive:            7.294969

@<TRIPOS>MOLECULE
ZINC001045438664
 50 53 1 0 0
SMALL
USER_CHARGES


@<TRIPOS>ATOM
      1 C1        -13.9192   -5.1122   56.7162 C.3     1  ZINC001045438664   -0.1100
      2 C2        -13.3985   -3.9206   57.4779 C.ar    1  ZINC001045438664    0.2100
      3 C3        -12.1100   -3.4689   57.2728 C.ar    1  ZINC001045438664   -0.3000
      4 C4        -11.6721   -2.3608   58.0015 C.ar    1  ZINC001045438664    0.4500
      5 N5        -10.3882   -1.8691   57.8313 N.pl3   1  ZINC001045438664   -0.7100
      6 C6        -10.1763   -0.6027   57.1259 C.3     1  ZINC001045438664    0.1500
      7 H7        -11.0575    0.0286   57.2401 H       1  ZINC001045438664    0.0900
      8 C8         -9.9368   -0.8802   55.6405 C.3     1  ZINC001045438664   -0.1300
      9 C9         -9.7156    0.4424   54.9038 C.3     1  ZINC001045438664   -0.1200
     10 C10        -8.4970    1.1562   55.4922 C.3     1  ZINC001045438664   -0.1200
     11 C11        -8.7364    1.4337   56.9777 C.3     1  ZINC001045438664   -0.1300
     12 C12        -8.9576    0.1111   57.7144 C.3     1  ZINC001045438664    0.1400
     13 H13        -8.0765   -0.5202   57.6001 H       1  ZINC001045438664    0.1000
     14 N14        -9.1870    0.3768   59.1367 N.am    1  ZINC001045438664   -0.7200
     15 C15        -8.5268   -0.3365   60.0705 C.2     1  ZINC001045438664    0.5700
     16 O16        -7.7422   -1.2013   59.7324 O.2     1  ZINC001045438664   -0.5200
     17 C17        -8.7569   -0.0672   61.5057 C.ar    1  ZINC001045438664   -0.2500
     18 C18        -9.6155    0.9586   61.9167 C.ar    1  ZINC001045438664    0.1900
     19 N19        -9.7925    1.1642   63.2100 N.ar    1  ZINC001045438664   -0.5200
     20 C20        -9.1745    0.4200   64.1062 C.ar    1  ZINC001045438664    0.3200
     21 N21        -8.3571   -0.5561   63.7629 N.ar    1  ZINC001045438664   -0.5200
     22 C22        -8.1268   -0.8348   62.4918 C.ar    1  ZINC001045438664    0.2100
     23 N23       -12.5076   -1.7851   58.8609 N.ar    1  ZINC001045438664   -0.5800
     24 C24       -13.7296   -2.2499   59.0248 C.ar    1  ZINC001045438664    0.4000
     25 C25       -14.6466   -1.5692   60.0081 C.3     1  ZINC001045438664   -0.1100
     26 C26       -15.9495   -2.2846   60.3709 C.3     1  ZINC001045438664   -0.1500
     27 C27       -14.8075   -2.2134   61.3866 C.3     1  ZINC001045438664   -0.1500
     28 N28       -14.1740   -3.2901   58.3489 N.ar    1  ZINC001045438664   -0.5600
     29 H29       -14.3773   -4.7768   55.7857 H       1  ZINC001045438664    0.0800
     30 H30       -13.0945   -5.7887   56.4919 H       1  ZINC001045438664    0.0800
     31 H31       -14.6624   -5.6329   57.3200 H       1  ZINC001045438664    0.0800
     32 H32       -11.4569   -3.9604   56.5669 H       1  ZINC001045438664    0.1400
     33 H33        -9.6294   -2.3635   58.1791 H       1  ZINC001045438664    0.4100
     34 H34        -9.0556   -1.5115   55.5262 H       1  ZINC001045438664    0.0700
     35 H35       -10.8050   -1.3887   55.2213 H       1  ZINC001045438664    0.0700
     36 H36        -9.5449    0.2448   53.8456 H       1  ZINC001045438664    0.0700
     37 H37       -10.5967    1.0738   55.0181 H       1  ZINC001045438664    0.0700
     38 H38        -7.6158    0.5249   55.3780 H       1  ZINC001045438664    0.0700
     39 H39        -8.3393    2.0986   54.9675 H       1  ZINC001045438664    0.0700
     40 H40        -7.8682    1.9423   57.3969 H       1  ZINC001045438664    0.0800
     41 H41        -9.6176    2.0650   57.0920 H       1  ZINC001045438664    0.0700
     42 H42        -9.8140    1.0659   59.4064 H       1  ZINC001045438664    0.4000
     43 H43       -10.1249    1.5726   61.1887 H       1  ZINC001045438664    0.1700
     44 H44        -9.3428    0.6165   65.1548 H       1  ZINC001045438664    0.2100
     45 H45        -7.4561   -1.6359   62.2185 H       1  ZINC001045438664    0.1800
     46 H46       -14.6674   -0.4807   59.9558 H       1  ZINC001045438664    0.1300
     47 H47       -16.8279   -1.6665   60.5571 H       1  ZINC001045438664    0.1000
     48 H48       -16.1435   -3.2474   59.8984 H       1  ZINC001045438664    0.1100
     49 H49       -14.2502   -3.1294   61.5823 H       1  ZINC001045438664    0.1000
     50 H50       -14.9345   -1.5485   62.2410 H       1  ZINC001045438664    0.1000
@<TRIPOS>BOND
     1     1     2    1
     2     1    29    1
     3     1    30    1
     4     1    31    1
     5     2    28   ar
     6     2     3   ar
     7     3     4   ar
     8     3    32    1
     9     4     5    1
    10     4    23   ar
    11     5     6    1
    12     5    33    1
    13     6     7    1
    14     6    12    1
    15     6     8    1
    16     8     9    1
    17     8    34    1
    18     8    35    1
    19     9    10    1
    20     9    36    1
    21     9    37    1
    22    10    11    1
    23    10    38    1
    24    10    39    1
    25    11    12    1
    26    11    40    1
    27    11    41    1
    28    12    13    1
    29    12    14    1
    30    14    15   am
    31    14    42    1
    32    15    16    2
    33    15    17    1
    34    17    22   ar
    35    17    18   ar
    36    18    19   ar
    37    18    43    1
    38    19    20   ar
    39    20    21   ar
    40    20    44    1
    41    21    22   ar
    42    22    45    1
    43    23    24   ar
    44    24    25    1
    45    24    28   ar
    46    25    27    1
    47    25    26    1
    48    25    46    1
    49    26    27    1
    50    26    47    1
    51    26    48    1
    52    27    49    1
    53    27    50    1
@<TRIPOS>SUBSTRUCTURE
     1 ZINC001045438664        1 TEMP              0 ****  ****    0 ROOT


##########                                Name:    ZINC000265724350
##########                DOCK_Rotatable_Bonds:                   8
##########                         Heavy_Atoms:                  23
##########                    Molecular_Weight:              345.42
##########                DOCK_Rotatable_Bonds:                   8
##########                       Formal_Charge:          -0.0300002
##########                     HBond_Acceptors:                   9
##########                        HBond_Donors:                   2
##########                         Heavy_Atoms:                  23
##########                          Grid_Score:          -29.323647
##########                     Grid_vdw_energy:          -28.931927
##########                      Grid_es_energy:           -0.391721
##########           Internal_energy_repulsive:            8.880405

@<TRIPOS>MOLECULE
ZINC000265724350
 46 47 1 0 0
SMALL
USER_CHARGES


@<TRIPOS>ATOM
      1 C1         -8.3253    2.6628   63.2229 C.3     1  ZINC000265724350    0.0800
      2 N2         -8.1719    1.3371   63.8274 N.am    1  ZINC000265724350   -1.1100
      3 S3         -9.1012    0.0730   63.2976 S.o2    1  ZINC000265724350    2.7200
      4 O4         -8.6167   -1.0867   63.9606 O.2     1  ZINC000265724350   -0.9300
      5 O5        -10.4520    0.5067   63.3775 O.2     1  ZINC000265724350   -0.9300
      6 C6         -8.7508   -0.1500   61.5852 C.2     1  ZINC000265724350   -0.5600
      7 C7         -8.8412   -1.3164   60.9088 C.2     1  ZINC000265724350   -0.0900
      8 C8         -8.4770   -1.0522   59.5792 C.2     1  ZINC000265724350   -0.1400
      9 C9         -8.1791    0.2786   59.5109 C.2     1  ZINC000265724350   -0.0200
     10 C10        -7.7473    1.0046   58.3120 C.2     1  ZINC000265724350    0.6000
     11 O11        -7.4189    2.1736   58.3938 O.2     1  ZINC000265724350   -0.5000
     12 N12        -7.7142    0.3772   57.1196 N.am    1  ZINC000265724350   -0.7100
     13 C13        -7.2813    1.1020   55.9223 C.3     1  ZINC000265724350    0.1200
     14 C14        -8.5043    1.4759   55.0824 C.3     1  ZINC000265724350   -0.1100
     15 H15        -9.2557    0.6907   55.1650 H       1  ZINC000265724350    0.0800
     16 C16        -9.0877    2.7958   55.5908 C.3     1  ZINC000265724350   -0.1400
     17 C17        -8.0889    1.6324   53.6182 C.3     1  ZINC000265724350    0.0600
     18 N18        -8.0519    0.3117   52.9760 N.3     1  ZINC000265724350   -0.5300
     19 C19        -6.8723    0.1804   52.1085 C.3     1  ZINC000265724350    0.0100
     20 C20        -6.8413   -1.2274   51.5079 C.3     1  ZINC000265724350    0.0600
     21 O21        -8.0618   -1.4660   50.8018 O.3     1  ZINC000265724350   -0.3900
     22 C22        -9.2311   -1.3470   51.6166 C.3     1  ZINC000265724350    0.0600
     23 C23        -9.2864    0.0596   52.2183 C.3     1  ZINC000265724350    0.0200
     24 O24        -8.3568    0.8098   60.7382 O.3     1  ZINC000265724350   -0.1100
     25 H25        -7.6353    3.3605   63.6975 H       1  ZINC000265724350    0.0900
     26 H26        -8.1061    2.6035   62.1568 H       1  ZINC000265724350    0.0600
     27 H27        -9.3486    3.0105   63.3647 H       1  ZINC000265724350    0.0700
     28 H28        -7.5261    1.1998   64.5380 H       1  ZINC000265724350    0.4200
     29 H29        -9.1378   -2.2721   61.3149 H       1  ZINC000265724350    0.1800
     30 H30        -8.4395   -1.7637   58.7676 H       1  ZINC000265724350    0.1700
     31 H31        -7.9772   -0.5541   57.0542 H       1  ZINC000265724350    0.4100
     32 H32        -6.7523    2.0081   56.2174 H       1  ZINC000265724350    0.0800
     33 H33        -6.6168    0.4685   55.3346 H       1  ZINC000265724350    0.0700
     34 H34        -9.3837    2.6844   56.6340 H       1  ZINC000265724350    0.0500
     35 H35        -8.3363    3.5810   55.5082 H       1  ZINC000265724350    0.0600
     36 H36        -9.9590    3.0622   54.9925 H       1  ZINC000265724350    0.0700
     37 H37        -8.8089    2.2674   53.1021 H       1  ZINC000265724350    0.0800
     38 H38        -7.1002    2.0887   53.5679 H       1  ZINC000265724350    0.0400
     39 H39        -6.9262    0.9171   51.3069 H       1  ZINC000265724350    0.0400
     40 H40        -5.9687    0.3457   52.6954 H       1  ZINC000265724350    0.0900
     41 H41        -6.0002   -1.3111   50.8197 H       1  ZINC000265724350    0.1000
     42 H42        -6.7333   -1.9615   52.3065 H       1  ZINC000265724350    0.0600
     43 H43       -10.1185   -1.5171   51.0069 H       1  ZINC000265724350    0.1000
     44 H44        -9.1927   -2.0846   52.4182 H       1  ZINC000265724350    0.0600
     45 H45       -10.1449    0.1368   52.8852 H       1  ZINC000265724350    0.0900
     46 H46        -9.3788    0.7943   51.4184 H       1  ZINC000265724350    0.0400
@<TRIPOS>BOND
     1     1     2    1
     2     1    25    1
     3     1    26    1
     4     1    27    1
     5     2     3   am
     6     2    28    1
     7     3     4    2
     8     3     5    2
     9     3     6    1
    10     6    24    1
    11     6     7    2
    12     7     8    1
    13     7    29    1
    14     8     9    2
    15     8    30    1
    16     9    10    1
    17     9    24    1
    18    10    11    2
    19    10    12   am
    20    12    13    1
    21    12    31    1
    22    13    14    1
    23    13    32    1
    24    13    33    1
    25    14    15    1
    26    14    16    1
    27    14    17    1
    28    16    34    1
    29    16    35    1
    30    16    36    1
    31    17    18    1
    32    17    37    1
    33    17    38    1
    34    18    23    1
    35    18    19    1
    36    19    20    1
    37    19    39    1
    38    19    40    1
    39    20    21    1
    40    20    41    1
    41    20    42    1
    42    21    22    1
    43    22    23    1
    44    22    43    1
    45    22    44    1
    46    23    45    1
    47    23    46    1
@<TRIPOS>SUBSTRUCTURE
     1 ZINC000265724350        1 TEMP              0 ****  ****    0 ROOT


##########                                Name:    ZINC000022858610
##########                DOCK_Rotatable_Bonds:                   9
##########                         Heavy_Atoms:                  26
##########                    Molecular_Weight:             369.343
##########                DOCK_Rotatable_Bonds:                   9
##########                       Formal_Charge:          0.00999956
##########                     HBond_Acceptors:                   9
##########                        HBond_Donors:                   2
##########                         Heavy_Atoms:                  26
##########                          Grid_Score:          -29.313671
##########                     Grid_vdw_energy:          -29.429129
##########                      Grid_es_energy:            0.115458
##########           Internal_energy_repulsive:           21.425268

@<TRIPOS>MOLECULE
ZINC000022858610
 44 45 1 0 0
SMALL
USER_CHARGES


@<TRIPOS>ATOM
      1 C1          0.0978    1.0863   44.3417 C.3     1  <0>         0.0100
      2 N2         -1.3602    1.1398   44.5120 N.3     1  <0>        -0.5300
      3 C3         -2.0113    0.0110   43.8339 C.3     1  <0>         0.0200
      4 C4         -1.7230    1.1792   45.9349 C.3     1  <0>         0.1500
      5 H5         -2.7941    1.0076   46.0417 H       1  <0>         0.1200
      6 C6         -1.3659    2.5494   46.5144 C.3     1  <0>         0.1300
      7 N7         -2.3492    2.9191   47.5355 N.am    1  <0>        -0.6800
      8 C8         -2.1233    2.6166   48.8293 C.2     1  <0>         0.5100
      9 O9         -1.1048    2.0393   49.1487 O.2     1  <0>        -0.5100
     10 C10        -3.1266    2.9920   49.8701 C.2     1  <0>         0.5200
     11 O11        -3.9108    3.8942   49.6598 O.2     1  <0>        -0.4900
     12 N12        -3.1613    2.3288   51.0429 N.am    1  <0>        -0.6500
     13 C13        -4.0999    2.6800   52.0166 C.ar    1  <0>         0.1900
     14 C14        -5.4162    2.2516   51.9012 C.ar    1  <0>        -0.1200
     15 C15        -6.3415    2.6007   52.8654 C.ar    1  <0>        -0.0700
     16 C16        -5.9586    3.3756   53.9448 C.ar    1  <0>        -0.1300
     17 C17        -4.6489    3.8042   54.0626 C.ar    1  <0>        -0.0500
     18 C18        -3.7173    3.4537   53.1055 C.ar    1  <0>        -0.2100
     19 C19        -2.2905    3.9211   53.2347 C.3     1  <0>         0.5100
     20 F20        -1.4395    2.8121   53.2872 F       1  <0>        -0.1700
     21 F21        -1.9574    4.7128   52.1305 F       1  <0>        -0.1800
     22 F22        -2.1502    4.6724   54.4066 F       1  <0>        -0.1700
     23 C23        -0.9660    0.1075   46.6762 C.2     1  <0>        -0.0500
     24 C24         0.2909    0.2125   47.1437 C.2     1  <0>        -0.1900
     25 C25         0.5999   -1.0180   47.7675 C.2     1  <0>        -0.2100
     26 C26        -0.4866   -1.8014   47.6439 C.2     1  <0>        -0.0400
     27 O27        -1.4340   -1.1124   46.9871 O.3     1  <0>        -0.1700
     28 H28         0.3473    1.2467   43.2928 H       1  <0>         0.0700
     29 H29         0.5634    1.8627   44.9487 H       1  <0>         0.0700
     30 H30         0.4648    0.1095   44.6571 H       1  <0>         0.0500
     31 H31        -1.6445   -0.9257   44.2537 H       1  <0>         0.0300
     32 H32        -3.0901    0.0751   43.9758 H       1  <0>         0.0700
     33 H33        -1.7823    0.0459   42.7687 H       1  <0>         0.0800
     34 H34        -0.3738    2.5065   46.9641 H       1  <0>         0.0900
     35 H35        -1.3718    3.2936   45.7180 H       1  <0>         0.0800
     36 H36        -3.1627    3.3817   47.2805 H       1  <0>         0.4200
     37 H37        -2.5346    1.6077   51.2111 H       1  <0>         0.4300
     38 H38        -5.7160    1.6467   51.0583 H       1  <0>         0.1500
     39 H39        -7.3651    2.2683   52.7762 H       1  <0>         0.1400
     40 H40        -6.6841    3.6470   54.6973 H       1  <0>         0.1400
     41 H41        -4.3534    4.4099   54.9065 H       1  <0>         0.1500
     42 H42         0.9396    1.0717   47.0583 H       1  <0>         0.1500
     43 H43         1.5301   -1.2791   48.2504 H       1  <0>         0.1500
     44 H44        -0.5822   -2.8116   48.0138 H       1  <0>         0.2000
@<TRIPOS>BOND
     1     1     2    1
     2     1    28    1
     3     1    29    1
     4     1    30    1
     5     2     3    1
     6     2     4    1
     7     3    31    1
     8     3    32    1
     9     3    33    1
    10     4     5    1
    11     4     6    1
    12     4    23    1
    13     6     7    1
    14     6    34    1
    15     6    35    1
    16     7     8   am
    17     7    36    1
    18     8     9    2
    19     8    10    1
    20    10    11    2
    21    10    12   am
    22    12    13    1
    23    12    37    1
    24    13    18   ar
    25    13    14   ar
    26    14    15   ar
    27    14    38    1
    28    15    16   ar
    29    15    39    1
    30    16    17   ar
    31    16    40    1
    32    17    18   ar
    33    17    41    1
    34    18    19    1
    35    19    20    1
    36    19    21    1
    37    19    22    1
    38    23    27    1
    39    23    24    2
    40    24    25    1
    41    24    42    1
    42    25    26    2
    43    25    43    1
    44    26    27    1
    45    26    44    1
@<TRIPOS>SUBSTRUCTURE
     1 <0>         1 TEMP              0 ****  ****    0 ROOT


##########                                Name:    ZINC000542980334
##########                DOCK_Rotatable_Bonds:                   6
##########                         Heavy_Atoms:                  27
##########                    Molecular_Weight:             404.795
##########                DOCK_Rotatable_Bonds:                   6
##########                       Formal_Charge:           0.0300001
##########                     HBond_Acceptors:                  10
##########                        HBond_Donors:                   1
##########                         Heavy_Atoms:                  27
##########                          Grid_Score:          -29.302380
##########                     Grid_vdw_energy:          -28.714865
##########                      Grid_es_energy:           -0.587515
##########           Internal_energy_repulsive:           11.128639

@<TRIPOS>MOLECULE
ZINC000542980334
 44 46 1 0 0
SMALL
USER_CHARGES


@<TRIPOS>ATOM
      1 O1         -0.8669    4.4246   49.9818 O.2     1  ZINC000542980334   -0.5800
      2 C2         -1.7876    3.6312   50.0154 C.2     1  ZINC000542980334    0.7100
      3 N3         -1.7380    2.5092   49.2704 N.am    1  ZINC000542980334   -0.7400
      4 C4         -0.5773    2.2484   48.4154 C.3     1  ZINC000542980334    0.1800
      5 C5         -0.5358    0.7851   48.0574 C.ar    1  ZINC000542980334   -0.1400
      6 C6          0.3130   -0.0705   48.7381 C.ar    1  ZINC000542980334    0.1300
      7 F7          1.1048    0.4057   49.7239 F       1  ZINC000542980334   -0.1200
      8 C8          0.3498   -1.4151   48.4085 C.ar    1  ZINC000542980334   -0.1500
      9 C9         -0.4605   -1.9019   47.4005 C.ar    1  ZINC000542980334   -0.0700
     10 C10        -1.3082   -1.0473   46.7207 C.ar    1  ZINC000542980334   -0.1200
     11 C11        -1.3501    0.2952   47.0522 C.ar    1  ZINC000542980334    0.0100
     12 Cl12       -2.4154    1.3673   46.1982 Cl      1  ZINC000542980334   -0.0400
     13 N13        -2.8555    3.8712   50.8020 N.am    1  ZINC000542980334   -0.6300
     14 C14        -2.9240    5.0898   51.6199 C.3     1  ZINC000542980334    0.1100
     15 C15        -3.1938    4.6927   53.0746 C.3     1  ZINC000542980334   -0.1300
     16 C16        -4.4512    3.8226   53.1368 C.3     1  ZINC000542980334   -0.1300
     17 C17        -4.2315    2.5467   52.3206 C.3     1  ZINC000542980334    0.1400
     18 H18        -3.3715    2.0058   52.7154 H       1  ZINC000542980334    0.1100
     19 N19        -5.4237    1.6996   52.4072 N.pl3   1  ZINC000542980334   -0.3400
     20 C20        -5.7418    0.6889   51.5714 C.2     1  ZINC000542980334    0.0600
     21 C21        -6.9149    0.1607   51.9908 C.2     1  ZINC000542980334   -0.2300
     22 C22        -7.3278    0.8728   53.1216 C.2     1  ZINC000542980334   -0.0200
     23 C23        -8.5843    0.6208   53.9144 C.3     1  ZINC000542980334    0.5600
     24 F24        -9.6294    1.3876   53.3881 F       1  ZINC000542980334   -0.1700
     25 F25        -8.9182   -0.7358   53.8405 F       1  ZINC000542980334   -0.1700
     26 F26        -8.3719    0.9767   55.2506 F       1  ZINC000542980334   -0.1600
     27 N27        -6.4316    1.7916   53.3756 N.2     1  ZINC000542980334   -0.2300
     28 C28        -3.9759    2.9222   50.8531 C.3     1  ZINC000542980334    0.1300
     29 H29        -2.4709    1.8744   49.3002 H       1  ZINC000542980334    0.4000
     30 H30        -0.6555    2.8430   47.5053 H       1  ZINC000542980334    0.0900
     31 H31         0.3345    2.5180   48.9483 H       1  ZINC000542980334    0.0900
     32 H32         1.0121   -2.0832   48.9390 H       1  ZINC000542980334    0.1500
     33 H33        -0.4312   -2.9504   47.1436 H       1  ZINC000542980334    0.1500
     34 H34        -1.9408   -1.4287   45.9328 H       1  ZINC000542980334    0.1500
     35 H35        -1.9768    5.6257   51.5570 H       1  ZINC000542980334    0.0800
     36 H36        -3.7314    5.7271   51.2592 H       1  ZINC000542980334    0.0800
     37 H37        -2.3435    4.1316   53.4623 H       1  ZINC000542980334    0.0800
     38 H38        -3.3424    5.5902   53.6751 H       1  ZINC000542980334    0.0900
     39 H39        -4.6595    3.5590   54.1738 H       1  ZINC000542980334    0.0800
     40 H40        -5.2961    4.3754   52.7261 H       1  ZINC000542980334    0.0800
     41 H41        -5.1639    0.3608   50.7201 H       1  ZINC000542980334    0.1900
     42 H42        -7.4399   -0.6646   51.5329 H       1  ZINC000542980334    0.1600
     43 H43        -4.8704    3.3816   50.4323 H       1  ZINC000542980334    0.0800
     44 H44        -3.7211    2.0270   50.2859 H       1  ZINC000542980334    0.1100
@<TRIPOS>BOND
     1     1     2    2
     2     2     3   am
     3     2    13   am
     4     3     4    1
     5     3    29    1
     6     4     5    1
     7     4    30    1
     8     4    31    1
     9     5    11   ar
    10     5     6   ar
    11     6     7    1
    12     6     8   ar
    13     8     9   ar
    14     8    32    1
    15     9    10   ar
    16     9    33    1
    17    10    11   ar
    18    10    34    1
    19    11    12    1
    20    13    28    1
    21    13    14    1
    22    14    15    1
    23    14    35    1
    24    14    36    1
    25    15    16    1
    26    15    37    1
    27    15    38    1
    28    16    17    1
    29    16    39    1
    30    16    40    1
    31    17    18    1
    32    17    19    1
    33    17    28    1
    34    19    27    1
    35    19    20    1
    36    20    21    2
    37    20    41    1
    38    21    22    1
    39    21    42    1
    40    22    23    1
    41    22    27    2
    42    23    24    1
    43    23    25    1
    44    23    26    1
    45    28    43    1
    46    28    44    1
@<TRIPOS>SUBSTRUCTURE
     1 ZINC000542980334        1 TEMP              0 ****  ****    0 ROOT


##########                                Name:    ZINC001400108193
##########                DOCK_Rotatable_Bonds:                   9
##########                         Heavy_Atoms:                  25
##########                    Molecular_Weight:              344.41
##########                DOCK_Rotatable_Bonds:                   9
##########                       Formal_Charge:           0.0200001
##########                     HBond_Acceptors:                   6
##########                        HBond_Donors:                   2
##########                         Heavy_Atoms:                  25
##########                          Grid_Score:          -29.301809
##########                     Grid_vdw_energy:          -27.631254
##########                      Grid_es_energy:           -1.670555
##########           Internal_energy_repulsive:            6.188492

@<TRIPOS>MOLECULE
ZINC001400108193
 49 50 1 0 0
SMALL
USER_CHARGES


@<TRIPOS>ATOM
      1 C1         -3.4145    2.2662   49.4584 C.3     1  ZINC001400108193   -0.0800
      2 C2         -4.2009    2.1764   50.7409 C.2     1  ZINC001400108193   -0.0100
      3 C3         -5.1433    1.2609   51.0132 C.2     1  ZINC001400108193   -0.1600
      4 C4         -5.6258    1.5681   52.3676 C.2     1  ZINC001400108193   -0.2300
      5 C5         -6.6656    0.8511   53.1269 C.2     1  ZINC001400108193    0.5900
      6 O6         -7.2089   -0.1234   52.6429 O.2     1  ZINC001400108193   -0.5300
      7 N7         -7.0144    1.2752   54.3578 N.am    1  ZINC001400108193   -0.7300
      8 C8         -8.0493    0.5633   55.1118 C.3     1  ZINC001400108193    0.1100
      9 C9         -7.9707    0.9621   56.5868 C.3     1  ZINC001400108193    0.1300
     10 H10        -6.9420    0.8676   56.9345 H       1  ZINC001400108193    0.1000
     11 C11        -8.4325    2.4118   56.7486 C.3     1  ZINC001400108193   -0.1600
     12 N12        -8.8360    0.0830   57.3772 N.am    1  ZINC001400108193   -0.7300
     13 C13        -8.4893   -0.2491   58.6365 C.2     1  ZINC001400108193    0.5200
     14 O14        -7.4617    0.1811   59.1160 O.2     1  ZINC001400108193   -0.5100
     15 C15        -9.3785   -1.1550   59.4489 C.3     1  ZINC001400108193    0.0700
     16 H16        -9.7446   -1.9653   58.8185 H       1  ZINC001400108193    0.1000
     17 C17        -8.5812   -1.7381   60.6173 C.3     1  ZINC001400108193   -0.1800
     18 O18       -10.4862   -0.4070   59.9543 O.3     1  ZINC001400108193   -0.2800
     19 C19       -11.7231   -0.9425   59.7804 C.ar    1  ZINC001400108193    0.1200
     20 C20       -12.2736   -1.7531   60.7625 C.ar    1  ZINC001400108193   -0.2100
     21 C21       -13.5312   -2.2958   60.5835 C.ar    1  ZINC001400108193   -0.0800
     22 C22       -14.2391   -2.0359   59.4245 C.ar    1  ZINC001400108193   -0.1200
     23 C23       -15.6084   -2.6344   59.2292 C.3     1  ZINC001400108193   -0.1100
     24 C24       -13.6948   -1.2241   58.4466 C.ar    1  ZINC001400108193   -0.0800
     25 C25       -12.4375   -0.6789   58.6207 C.ar    1  ZINC001400108193   -0.1400
     26 C26        -4.9141    2.6594   52.7722 C.2     1  ZINC001400108193    0.0200
     27 O27        -4.0704    2.9994   51.7930 O.3     1  ZINC001400108193   -0.1700
     28 H28        -3.9422    2.9082   48.7530 H       1  ZINC001400108193    0.0900
     29 H29        -2.4297    2.6854   49.6647 H       1  ZINC001400108193    0.0800
     30 H30        -3.3031    1.2702   49.0301 H       1  ZINC001400108193    0.0900
     31 H31        -5.4785    0.4614   50.3692 H       1  ZINC001400108193    0.1600
     32 H32        -6.5802    2.0517   54.7443 H       1  ZINC001400108193    0.4000
     33 H33        -7.8934   -0.5113   55.0172 H       1  ZINC001400108193    0.0800
     34 H34        -9.0309    0.8243   54.7167 H       1  ZINC001400108193    0.0900
     35 H35        -8.3765    2.6959   57.7993 H       1  ZINC001400108193    0.0700
     36 H36        -7.7887    3.0659   56.1605 H       1  ZINC001400108193    0.0700
     37 H37        -9.4613    2.5064   56.4008 H       1  ZINC001400108193    0.0600
     38 H38        -9.6584   -0.2602   56.9941 H       1  ZINC001400108193    0.4000
     39 H39        -7.7363   -2.3086   60.2319 H       1  ZINC001400108193    0.0800
     40 H40        -8.2152   -0.9277   61.2477 H       1  ZINC001400108193    0.0800
     41 H41        -9.2243   -2.3933   61.2049 H       1  ZINC001400108193    0.0800
     42 H42       -11.7191   -1.9600   61.6659 H       1  ZINC001400108193    0.1300
     43 H43       -13.9601   -2.9272   61.3475 H       1  ZINC001400108193    0.1300
     44 H44       -16.3621   -1.9541   59.6257 H       1  ZINC001400108193    0.0700
     45 H45       -15.7867   -2.7943   58.1659 H       1  ZINC001400108193    0.0700
     46 H46       -15.6667   -3.5875   59.7549 H       1  ZINC001400108193    0.0700
     47 H47       -14.2514   -1.0193   57.5440 H       1  ZINC001400108193    0.1300
     48 H48       -12.0113   -0.0479   57.8549 H       1  ZINC001400108193    0.1300
     49 H49        -5.0135    3.1614   53.7233 H       1  ZINC001400108193    0.2100
@<TRIPOS>BOND
     1     1     2    1
     2     1    28    1
     3     1    29    1
     4     1    30    1
     5     2    27    1
     6     2     3    2
     7     3     4    1
     8     3    31    1
     9     4     5    1
    10     4    26    2
    11     5     6    2
    12     5     7   am
    13     7     8    1
    14     7    32    1
    15     8     9    1
    16     8    33    1
    17     8    34    1
    18     9    10    1
    19     9    11    1
    20     9    12    1
    21    11    35    1
    22    11    36    1
    23    11    37    1
    24    12    13   am
    25    12    38    1
    26    13    14    2
    27    13    15    1
    28    15    16    1
    29    15    17    1
    30    15    18    1
    31    17    39    1
    32    17    40    1
    33    17    41    1
    34    18    19    1
    35    19    25   ar
    36    19    20   ar
    37    20    21   ar
    38    20    42    1
    39    21    22   ar
    40    21    43    1
    41    22    23    1
    42    22    24   ar
    43    23    44    1
    44    23    45    1
    45    23    46    1
    46    24    25   ar
    47    24    47    1
    48    25    48    1
    49    26    27    1
    50    26    49    1
@<TRIPOS>SUBSTRUCTURE
     1 ZINC001400108193        1 TEMP              0 ****  ****    0 ROOT


##########                                Name:    ZINC000507831344
##########                DOCK_Rotatable_Bonds:                   6
##########                         Heavy_Atoms:                  31
##########                    Molecular_Weight:              422.53
##########                DOCK_Rotatable_Bonds:                   6
##########                       Formal_Charge:          -0.0200002
##########                     HBond_Acceptors:                   8
##########                        HBond_Donors:                   2
##########                         Heavy_Atoms:                  31
##########                          Grid_Score:          -29.276424
##########                     Grid_vdw_energy:          -28.228422
##########                      Grid_es_energy:           -1.048001
##########           Internal_energy_repulsive:           26.083096

@<TRIPOS>MOLECULE
ZINC000507831344
 61 64 1 0 0
SMALL
USER_CHARGES


@<TRIPOS>ATOM
      1 C1         -7.5441   -1.5598   52.1475 C.3     1  ZINC000507831344   -0.1000
      2 C2         -7.0781   -0.1522   52.4173 C.ar    1  ZINC000507831344   -0.0800
      3 C3         -5.8675    0.2919   51.9186 C.ar    1  ZINC000507831344   -0.0800
      4 C4         -5.4767    1.6018   52.1928 C.ar    1  ZINC000507831344    0.0900
      5 N5         -4.2577    2.0949   51.7071 N.am    1  ZINC000507831344   -0.6700
      6 C6         -3.9155    1.8960   50.4188 C.2     1  ZINC000507831344    0.5100
      7 O7         -4.6624    1.2902   49.6795 O.2     1  ZINC000507831344   -0.5100
      8 C8         -2.6049    2.4260   49.8966 C.3     1  ZINC000507831344   -0.1400
      9 C9         -2.1421    1.5692   48.7166 C.3     1  ZINC000507831344   -0.0500
     10 C10        -0.8475    2.1182   48.1745 C.2     1  ZINC000507831344   -0.2200
     11 C11         0.3409    1.7098   48.6922 C.2     1  ZINC000507831344    0.2100
     12 C12         0.3786    0.7039   49.8137 C.3     1  ZINC000507831344   -0.1400
     13 N13         1.4953    2.2194   48.1858 N.pl3   1  ZINC000507831344   -0.3000
     14 N14         2.8401    1.9968   48.5055 N.am    1  ZINC000507831344   -0.5100
     15 C15         3.6023    2.7587   47.6978 C.2     1  ZINC000507831344    0.5500
     16 O16         4.8216    2.8100   47.7058 O.2     1  ZINC000507831344   -0.5400
     17 C17         2.7610    3.4788   46.8510 C.2     1  ZINC000507831344   -0.3500
     18 C18         1.4480    3.1344   47.1643 C.2     1  ZINC000507831344    0.3500
     19 N19         0.2731    3.5302   46.6608 N.2     1  ZINC000507831344   -0.4800
     20 C20        -0.8580    3.0488   47.1295 C.2     1  ZINC000507831344    0.2500
     21 C21        -2.1693    3.5089   46.5464 C.3     1  ZINC000507831344   -0.1200
     22 C22        -6.3087    2.4109   52.9510 C.ar    1  ZINC000507831344    0.0800
     23 N23        -7.4579    1.9541   53.4114 N.ar    1  ZINC000507831344   -0.4900
     24 C24        -7.8632    0.7182   53.1664 C.ar    1  ZINC000507831344    0.2800
     25 N25        -9.0840    0.2810   53.6730 N.3     1  ZINC000507831344   -0.4800
     26 C26        -9.1246    0.4128   55.1350 C.3     1  ZINC000507831344    0.0600
     27 C27       -10.4170   -0.2091   55.6688 C.3     1  ZINC000507831344   -0.1200
     28 C28       -11.6179    0.5030   55.0400 C.3     1  ZINC000507831344   -0.1200
     29 C29       -11.5260    0.3926   53.5155 C.3     1  ZINC000507831344   -0.1100
     30 C30       -10.2014    0.9969   53.0442 C.3     1  ZINC000507831344    0.0900
     31 H31       -10.1622    2.0495   53.3247 H       1  ZINC000507831344    0.0600
     32 C32       -10.0961    0.8704   51.5230 C.3     1  ZINC000507831344   -0.1400
     33 H33        -8.1956   -1.5655   51.2736 H       1  ZINC000507831344    0.0700
     34 H34        -6.6810   -2.1989   51.9614 H       1  ZINC000507831344    0.0600
     35 H35        -8.0929   -1.9328   53.0123 H       1  ZINC000507831344    0.0800
     36 H36        -5.2391   -0.3607   51.3309 H       1  ZINC000507831344    0.1500
     37 H37        -3.6602    2.5792   52.2983 H       1  ZINC000507831344    0.4100
     38 H38        -2.7352    3.4571   49.5680 H       1  ZINC000507831344    0.1000
     39 H39        -1.8567    2.3888   50.6883 H       1  ZINC000507831344    0.1000
     40 H40        -1.9899    0.5428   49.0504 H       1  ZINC000507831344    0.0900
     41 H41        -2.9008    1.5881   47.9342 H       1  ZINC000507831344    0.1000
     42 H42         0.4243   -0.3025   49.3977 H       1  ZINC000507831344    0.1000
     43 H43         1.2587    0.8818   50.4319 H       1  ZINC000507831344    0.0800
     44 H44        -0.5197    0.8049   50.4228 H       1  ZINC000507831344    0.1100
     45 H45         3.1675    1.3958   49.1928 H       1  ZINC000507831344    0.4400
     46 H46         3.0715    4.1784   46.0890 H       1  ZINC000507831344    0.1700
     47 H47        -1.9803    4.2341   45.7548 H       1  ZINC000507831344    0.0900
     48 H48        -2.7043    2.6530   46.1350 H       1  ZINC000507831344    0.1000
     49 H49        -2.7715    3.9726   47.3278 H       1  ZINC000507831344    0.0900
     50 H50        -6.0126    3.4266   53.1678 H       1  ZINC000507831344    0.1600
     51 H51        -8.2676   -0.1014   55.5698 H       1  ZINC000507831344    0.0700
     52 H52        -9.0904    1.4680   55.4057 H       1  ZINC000507831344    0.0500
     53 H53       -10.4454   -1.2676   55.4104 H       1  ZINC000507831344    0.0700
     54 H54       -10.4542   -0.0973   56.7524 H       1  ZINC000507831344    0.0700
     55 H55       -12.5401    0.0349   55.3841 H       1  ZINC000507831344    0.0700
     56 H56       -11.6114    1.5537   55.3301 H       1  ZINC000507831344    0.0600
     57 H57       -11.5719   -0.6565   53.2232 H       1  ZINC000507831344    0.0700
     58 H58       -12.3554    0.9342   53.0607 H       1  ZINC000507831344    0.0700
     59 H59       -10.8732    1.4736   51.0536 H       1  ZINC000507831344    0.0600
     60 H60        -9.1171    1.2209   51.1962 H       1  ZINC000507831344    0.0500
     61 H61       -10.2228   -0.1733   51.2356 H       1  ZINC000507831344    0.0600
@<TRIPOS>BOND
     1     1     2    1
     2     1    33    1
     3     1    34    1
     4     1    35    1
     5     2    24   ar
     6     2     3   ar
     7     3     4   ar
     8     3    36    1
     9     4     5    1
    10     4    22   ar
    11     5     6   am
    12     5    37    1
    13     6     7    2
    14     6     8    1
    15     8     9    1
    16     8    38    1
    17     8    39    1
    18     9    10    1
    19     9    40    1
    20     9    41    1
    21    10    20    1
    22    10    11    2
    23    11    12    1
    24    11    13    1
    25    12    42    1
    26    12    43    1
    27    12    44    1
    28    13    18    1
    29    13    14    1
    30    14    15   am
    31    14    45    1
    32    15    16    2
    33    15    17    1
    34    17    18    2
    35    17    46    1
    36    18    19    1
    37    19    20    2
    38    20    21    1
    39    21    47    1
    40    21    48    1
    41    21    49    1
    42    22    23   ar
    43    22    50    1
    44    23    24   ar
    45    24    25    1
    46    25    30    1
    47    25    26    1
    48    26    27    1
    49    26    51    1
    50    26    52    1
    51    27    28    1
    52    27    53    1
    53    27    54    1
    54    28    29    1
    55    28    55    1
    56    28    56    1
    57    29    30    1
    58    29    57    1
    59    29    58    1
    60    30    31    1
    61    30    32    1
    62    32    59    1
    63    32    60    1
    64    32    61    1
@<TRIPOS>SUBSTRUCTURE
     1 ZINC000507831344        1 TEMP              0 ****  ****    0 ROOT


##########                                Name:    ZINC000653668607
##########                DOCK_Rotatable_Bonds:                   5
##########                         Heavy_Atoms:                  28
##########                    Molecular_Weight:             379.459
##########                DOCK_Rotatable_Bonds:                   5
##########                       Formal_Charge:          0.00999918
##########                     HBond_Acceptors:                   6
##########                        HBond_Donors:                   2
##########                         Heavy_Atoms:                  28
##########                          Grid_Score:          -29.256063
##########                     Grid_vdw_energy:          -27.876091
##########                      Grid_es_energy:           -1.379972
##########           Internal_energy_repulsive:           23.494768

@<TRIPOS>MOLECULE
ZINC000653668607
 53 56 1 0 0
SMALL
USER_CHARGES


@<TRIPOS>ATOM
      1 C1         -8.5087   -1.0768   61.3323 C.3     1  ZINC000653668607    0.0300
      2 O2         -9.7968   -0.5774   61.6976 O.3     1  ZINC000653668607   -0.3200
      3 C3        -10.8570   -1.0121   60.9671 C.ar    1  ZINC000653668607    0.1300
      4 C4        -12.1506   -0.7962   61.4191 C.ar    1  ZINC000653668607   -0.2000
      5 C5        -13.2194   -1.2388   60.6688 C.ar    1  ZINC000653668607   -0.0800
      6 C6        -13.0133   -1.8991   59.4642 C.ar    1  ZINC000653668607   -0.1000
      7 C7        -14.2284   -2.3412   58.6911 C.3     1  ZINC000653668607   -0.0800
      8 C8        -13.8506   -3.3967   57.6539 C.3     1  ZINC000653668607   -0.1200
      9 C9        -12.6713   -2.8655   56.8305 C.3     1  ZINC000653668607   -0.1100
     10 C10       -11.4335   -2.8368   57.7248 C.3     1  ZINC000653668607   -0.0600
     11 H11       -11.1246   -3.8588   57.9438 H       1  ZINC000653668607    0.1000
     12 C12       -10.3175   -2.1237   57.0058 C.2     1  ZINC000653668607    0.5200
     13 O13        -9.5861   -2.7394   56.2593 O.2     1  ZINC000653668607   -0.5100
     14 N14       -10.1319   -0.8019   57.1921 N.am    1  ZINC000653668607   -0.6700
     15 C15        -9.0957   -0.1399   56.5246 C.ar    1  ZINC000653668607    0.1500
     16 C16        -8.2102    0.6602   57.2354 C.ar    1  ZINC000653668607   -0.1100
     17 C17        -7.1866    1.3144   56.5768 C.ar    1  ZINC000653668607   -0.0900
     18 C18        -7.0405    1.1752   55.2102 C.ar    1  ZINC000653668607   -0.1200
     19 C19        -7.9232    0.3768   54.4935 C.ar    1  ZINC000653668607    0.1700
     20 N20        -7.7748    0.2366   53.1090 N.am    1  ZINC000653668607   -0.5800
     21 C21        -6.4632   -0.1115   52.5601 C.3     1  ZINC000653668607    0.1100
     22 C22        -6.6551   -0.8902   51.2543 C.3     1  ZINC000653668607   -0.1500
     23 C23        -7.5178   -0.0495   50.3071 C.3     1  ZINC000653668607    0.1100
     24 N24        -8.7721    0.2951   50.9784 N.am    1  ZINC000653668607   -0.7400
     25 C25        -8.8386    0.4184   52.3124 C.2     1  ZINC000653668607    0.7100
     26 O26        -9.9030    0.7166   52.8189 O.2     1  ZINC000653668607   -0.5800
     27 C27        -8.9480   -0.2863   55.1526 C.ar    1  ZINC000653668607   -0.1300
     28 C28       -11.7295   -2.1196   59.0161 C.ar    1  ZINC000653668607   -0.0300
     29 C29       -10.6518   -1.6680   59.7650 C.ar    1  ZINC000653668607   -0.1500
     30 H30        -8.5010   -2.1630   61.4228 H       1  ZINC000653668607    0.0600
     31 H31        -8.2890   -0.7964   60.3021 H       1  ZINC000653668607    0.0600
     32 H32        -7.7533   -0.6517   61.9934 H       1  ZINC000653668607    0.1000
     33 H33       -12.3198   -0.2842   62.3547 H       1  ZINC000653668607    0.1300
     34 H34       -14.2264   -1.0707   61.0212 H       1  ZINC000653668607    0.1300
     35 H35       -14.9602   -2.7613   59.3812 H       1  ZINC000653668607    0.0800
     36 H36       -14.6653   -1.4802   58.1851 H       1  ZINC000653668607    0.0800
     37 H37       -13.5609   -4.3190   58.1574 H       1  ZINC000653668607    0.0700
     38 H38       -14.7000   -3.5872   56.9979 H       1  ZINC000653668607    0.0800
     39 H39       -12.4935   -3.5216   55.9784 H       1  ZINC000653668607    0.0700
     40 H40       -12.8934   -1.8580   56.4786 H       1  ZINC000653668607    0.0800
     41 H41       -10.7168   -0.3095   57.7891 H       1  ZINC000653668607    0.4100
     42 H42        -8.3221    0.7713   58.3038 H       1  ZINC000653668607    0.1400
     43 H43        -6.4996    1.9362   57.1316 H       1  ZINC000653668607    0.1300
     44 H44        -6.2395    1.6877   54.6983 H       1  ZINC000653668607    0.1200
     45 H45        -5.8983    0.7993   52.3613 H       1  ZINC000653668607    0.0700
     46 H46        -5.9208   -0.7288   53.2761 H       1  ZINC000653668607    0.0900
     47 H47        -5.6850   -1.0795   50.7951 H       1  ZINC000653668607    0.1000
     48 H48        -7.1553   -1.8361   51.4625 H       1  ZINC000653668607    0.0800
     49 H49        -6.9840    0.8631   50.0417 H       1  ZINC000653668607    0.0700
     50 H50        -7.7328   -0.6224   49.4051 H       1  ZINC000653668607    0.0900
     51 H51        -9.5725    0.4334   50.4480 H       1  ZINC000653668607    0.4200
     52 H52        -9.6352   -0.9078   54.5976 H       1  ZINC000653668607    0.1300
     53 H53        -9.6455   -1.8338   59.4099 H       1  ZINC000653668607    0.1200
@<TRIPOS>BOND
     1     1     2    1
     2     1    30    1
     3     1    31    1
     4     1    32    1
     5     2     3    1
     6     3    29   ar
     7     3     4   ar
     8     4     5   ar
     9     4    33    1
    10     5     6   ar
    11     5    34    1
    12     6    28   ar
    13     6     7    1
    14     7     8    1
    15     7    35    1
    16     7    36    1
    17     8     9    1
    18     8    37    1
    19     8    38    1
    20     9    10    1
    21     9    39    1
    22     9    40    1
    23    10    11    1
    24    10    12    1
    25    10    28    1
    26    12    13    2
    27    12    14   am
    28    14    15    1
    29    14    41    1
    30    15    27   ar
    31    15    16   ar
    32    16    17   ar
    33    16    42    1
    34    17    18   ar
    35    17    43    1
    36    18    19   ar
    37    18    44    1
    38    19    20    1
    39    19    27   ar
    40    20    25   am
    41    20    21    1
    42    21    22    1
    43    21    45    1
    44    21    46    1
    45    22    23    1
    46    22    47    1
    47    22    48    1
    48    23    24    1
    49    23    49    1
    50    23    50    1
    51    24    25   am
    52    24    51    1
    53    25    26    2
    54    27    52    1
    55    28    29   ar
    56    29    53    1
@<TRIPOS>SUBSTRUCTURE
     1 ZINC000653668607        1 TEMP              0 ****  ****    0 ROOT


##########                                Name:    ZINC000558213406
##########                DOCK_Rotatable_Bonds:                   8
##########                         Heavy_Atoms:                  30
##########                    Molecular_Weight:               408.5
##########                DOCK_Rotatable_Bonds:                   8
##########                       Formal_Charge:          -0.0299987
##########                     HBond_Acceptors:                   7
##########                        HBond_Donors:                   2
##########                         Heavy_Atoms:                  30
##########                          Grid_Score:          -29.245728
##########                     Grid_vdw_energy:          -28.506981
##########                      Grid_es_energy:           -0.738746
##########           Internal_energy_repulsive:           10.667315

@<TRIPOS>MOLECULE
ZINC000558213406
 58 61 1 0 0
SMALL
USER_CHARGES


@<TRIPOS>ATOM
      1 O1         -7.4241    0.6040   56.8632 O.2     1  ZINC000558213406   -0.5700
      2 C2         -7.3027    1.2924   57.8581 C.2     1  ZINC000558213406    0.7100
      3 N3         -6.7878    2.5340   57.7598 N.am    1  ZINC000558213406   -0.6800
      4 C4         -6.3869    3.0295   56.5117 C.ar    1  ZINC000558213406    0.1700
      5 C5         -5.0608    2.9207   56.1147 C.ar    1  ZINC000558213406   -0.1300
      6 C6         -4.6665    3.4086   54.8846 C.ar    1  ZINC000558213406   -0.1100
      7 C7         -5.5949    4.0079   54.0456 C.ar    1  ZINC000558213406    0.0600
      8 O8         -5.2059    4.4885   52.8348 O.3     1  ZINC000558213406   -0.2500
      9 C9         -4.7646    3.5989   51.9071 C.ar    1  ZINC000558213406    0.0700
     10 C10        -3.8879    4.0015   50.9045 C.ar    1  ZINC000558213406   -0.1500
     11 C11        -3.4657    3.0583   49.9813 C.ar    1  ZINC000558213406   -0.1300
     12 C12        -3.9252    1.7590   50.0857 C.ar    1  ZINC000558213406    0.0600
     13 N13        -4.7565    1.4099   51.0482 N.ar    1  ZINC000558213406   -0.4500
     14 C14        -5.1773    2.2746   51.9496 C.ar    1  ZINC000558213406    0.0800
     15 C15        -6.9201    4.1163   54.4417 C.ar    1  ZINC000558213406   -0.1000
     16 C16        -7.3166    3.6241   55.6693 C.ar    1  ZINC000558213406   -0.1100
     17 N17        -7.6882    0.8159   59.0584 N.am    1  ZINC000558213406   -0.7300
     18 C18        -8.2479   -0.5339   59.1653 C.3     1  ZINC000558213406    0.1500
     19 H19        -7.5362   -1.2749   58.8010 H       1  ZINC000558213406    0.1100
     20 C20        -8.6610   -0.8424   60.6286 C.3     1  ZINC000558213406   -0.1400
     21 C21        -9.7737   -1.9002   60.4212 C.3     1  ZINC000558213406    0.1000
     22 N22       -10.4901   -1.4616   59.2096 N.am    1  ZINC000558213406   -0.6200
     23 C23       -11.7644   -1.7688   58.8961 C.2     1  ZINC000558213406    0.5400
     24 O24       -12.4218   -2.4632   59.6420 O.2     1  ZINC000558213406   -0.5300
     25 C25       -12.3723   -1.2493   57.6187 C.3     1  ZINC000558213406   -0.1000
     26 C26       -13.1558   -2.3709   56.9339 C.3     1  ZINC000558213406   -0.1100
     27 C27       -13.7730   -1.8435   55.6371 C.3     1  ZINC000558213406   -0.1200
     28 C28       -14.7176   -0.6831   55.9568 C.3     1  ZINC000558213406   -0.1200
     29 C29       -13.9340    0.4384   56.6416 C.3     1  ZINC000558213406   -0.1200
     30 C30       -13.3168   -0.0890   57.9385 C.3     1  ZINC000558213406   -0.1100
     31 C31        -9.5822   -0.6340   58.3965 C.3     1  ZINC000558213406    0.1000
     32 H32        -6.6947    3.0847   58.5528 H       1  ZINC000558213406    0.4100
     33 H33        -4.3380    2.4549   56.7680 H       1  ZINC000558213406    0.1300
     34 H34        -3.6350    3.3240   54.5758 H       1  ZINC000558213406    0.1400
     35 H35        -3.5453    5.0240   50.8470 H       1  ZINC000558213406    0.1400
     36 H36        -2.7856    3.3353   49.1893 H       1  ZINC000558213406    0.1400
     37 H37        -3.5995    1.0195   49.3690 H       1  ZINC000558213406    0.1600
     38 H38        -5.8578    1.9515   52.7234 H       1  ZINC000558213406    0.1700
     39 H39        -7.6424    4.5829   53.7881 H       1  ZINC000558213406    0.1400
     40 H40        -8.3483    3.7083   55.9773 H       1  ZINC000558213406    0.1500
     41 H41        -7.5951    1.3665   59.8515 H       1  ZINC000558213406    0.4000
     42 H42        -7.8255   -1.2595   61.1908 H       1  ZINC000558213406    0.0900
     43 H43        -9.0547    0.0476   61.1194 H       1  ZINC000558213406    0.0800
     44 H44        -9.3356   -2.8862   60.2667 H       1  ZINC000558213406    0.0700
     45 H45       -10.4485   -1.9137   61.2770 H       1  ZINC000558213406    0.0800
     46 H46       -11.5809   -0.9012   56.9550 H       1  ZINC000558213406    0.0900
     47 H47       -12.4829   -3.1976   56.7061 H       1  ZINC000558213406    0.0600
     48 H48       -13.9472   -2.7190   57.5977 H       1  ZINC000558213406    0.0700
     49 H49       -12.9816   -1.4955   54.9733 H       1  ZINC000558213406    0.0600
     50 H50       -14.3312   -2.6425   55.1492 H       1  ZINC000558213406    0.0700
     51 H51       -15.1573   -0.3075   55.0329 H       1  ZINC000558213406    0.0600
     52 H52       -15.5090   -1.0313   56.6205 H       1  ZINC000558213406    0.0600
     53 H53       -13.1427    0.7865   55.9779 H       1  ZINC000558213406    0.0600
     54 H54       -14.6070    1.2651   56.8694 H       1  ZINC000558213406    0.0700
     55 H55       -14.1083   -0.4370   58.6023 H       1  ZINC000558213406    0.0800
     56 H56       -12.7586    0.7100   58.4264 H       1  ZINC000558213406    0.0600
     57 H57       -10.0065    0.3611   58.2637 H       1  ZINC000558213406    0.0800
     58 H58        -9.4220   -1.1036   57.4258 H       1  ZINC000558213406    0.0800
@<TRIPOS>BOND
     1     1     2    2
     2     2     3   am
     3     2    17   am
     4     3     4    1
     5     3    32    1
     6     4    16   ar
     7     4     5   ar
     8     5     6   ar
     9     5    33    1
    10     6     7   ar
    11     6    34    1
    12     7     8    1
    13     7    15   ar
    14     8     9    1
    15     9    14   ar
    16     9    10   ar
    17    10    11   ar
    18    10    35    1
    19    11    12   ar
    20    11    36    1
    21    12    13   ar
    22    12    37    1
    23    13    14   ar
    24    14    38    1
    25    15    16   ar
    26    15    39    1
    27    16    40    1
    28    17    18    1
    29    17    41    1
    30    18    19    1
    31    18    31    1
    32    18    20    1
    33    20    21    1
    34    20    42    1
    35    20    43    1
    36    21    22    1
    37    21    44    1
    38    21    45    1
    39    22    23   am
    40    22    31    1
    41    23    24    2
    42    23    25    1
    43    25    30    1
    44    25    26    1
    45    25    46    1
    46    26    27    1
    47    26    47    1
    48    26    48    1
    49    27    28    1
    50    27    49    1
    51    27    50    1
    52    28    29    1
    53    28    51    1
    54    28    52    1
    55    29    30    1
    56    29    53    1
    57    29    54    1
    58    30    55    1
    59    30    56    1
    60    31    57    1
    61    31    58    1
@<TRIPOS>SUBSTRUCTURE
     1 ZINC000558213406        1 TEMP              0 ****  ****    0 ROOT


##########                                Name:    ZINC000599228306
##########                DOCK_Rotatable_Bonds:                   8
##########                         Heavy_Atoms:                  25
##########                    Molecular_Weight:             379.382
##########                DOCK_Rotatable_Bonds:                   8
##########                       Formal_Charge:        -4.09782e-08
##########                     HBond_Acceptors:                  10
##########                        HBond_Donors:                   1
##########                         Heavy_Atoms:                  25
##########                          Grid_Score:          -29.236460
##########                     Grid_vdw_energy:          -28.289967
##########                      Grid_es_energy:           -0.946494
##########           Internal_energy_repulsive:           27.967175

@<TRIPOS>MOLECULE
ZINC000599228306
 44 44 1 0 0
SMALL
USER_CHARGES


@<TRIPOS>ATOM
      1 C1         -0.3288   -2.2653   47.7144 C.3     1  ZINC000599228306    0.0400
      2 O2         -0.4644   -1.5122   48.9484 O.3     1  ZINC000599228306   -0.3500
      3 C3          0.2603   -0.3816   49.0577 C.2     1  ZINC000599228306    0.5100
      4 O4          1.3328   -0.2906   48.4942 O.2     1  ZINC000599228306   -0.4800
      5 C5         -0.2487    0.7462   49.8619 C.ar    1  ZINC000599228306   -0.1500
      6 C6          0.5307    1.2839   50.8888 C.ar    1  ZINC000599228306   -0.0100
      7 C7          0.0480    2.3391   51.6373 C.ar    1  ZINC000599228306    0.0700
      8 F8          0.8007    2.8603   52.6308 F       1  ZINC000599228306   -0.1200
      9 C9         -1.2066    2.8655   51.3717 C.ar    1  ZINC000599228306    0.0100
     10 C10        -1.9840    2.3387   50.3571 C.ar    1  ZINC000599228306   -0.7100
     11 S11        -3.5769    3.0163   50.0283 S.o2    1  ZINC000599228306    2.7000
     12 O12        -3.3705    4.1258   49.1649 O.2     1  ZINC000599228306   -0.9200
     13 O13        -4.4188    1.9203   49.6978 O.2     1  ZINC000599228306   -0.9300
     14 N14        -4.1509    3.6334   51.4539 N.am    1  ZINC000599228306   -1.1000
     15 C15        -4.3332    2.7548   52.6118 C.3     1  ZINC000599228306    0.1600
     16 H16        -3.6847    1.8842   52.5129 H       1  ZINC000599228306    0.1300
     17 C17        -3.9751    3.5150   53.8903 C.3     1  ZINC000599228306   -0.1700
     18 C18        -5.7701    2.3055   52.6801 C.2     1  ZINC000599228306    0.4700
     19 O19        -6.1418    1.3670   52.0162 O.2     1  ZINC000599228306   -0.4900
     20 O20        -6.6369    2.9480   53.4785 O.3     1  ZINC000599228306   -0.3400
     21 C21        -7.7215    2.1634   54.0407 C.3     1  ZINC000599228306    0.1200
     22 C22        -7.1703    0.8391   54.5730 C.3     1  ZINC000599228306   -0.1900
     23 C23        -8.3738    2.9412   55.1854 C.3     1  ZINC000599228306   -0.1400
     24 C24        -8.7636    1.8828   52.9560 C.3     1  ZINC000599228306   -0.1800
     25 C25        -1.5117    1.2856   49.5959 C.ar    1  ZINC000599228306    0.2500
     26 F26        -2.2724    0.7722   48.6043 F       1  ZINC000599228306   -0.0900
     27 H27        -0.9641   -3.1499   47.7571 H       1  ZINC000599228306    0.1100
     28 H28        -0.6306   -1.6414   46.8730 H       1  ZINC000599228306    0.0700
     29 H29         0.7100   -2.5697   47.5867 H       1  ZINC000599228306    0.0700
     30 H30         1.5084    0.8751   51.0970 H       1  ZINC000599228306    0.1700
     31 H31        -1.5788    3.6907   51.9605 H       1  ZINC000599228306    0.1800
     32 H32        -4.3662    4.5768   51.5222 H       1  ZINC000599228306    0.4300
     33 H33        -4.1108    2.8611   54.7519 H       1  ZINC000599228306    0.0900
     34 H34        -2.9358    3.8399   53.8409 H       1  ZINC000599228306    0.0700
     35 H35        -4.6237    4.3855   53.9891 H       1  ZINC000599228306    0.0800
     36 H36        -6.4279    1.0389   55.3457 H       1  ZINC000599228306    0.0600
     37 H37        -7.9845    0.2499   54.9950 H       1  ZINC000599228306    0.0700
     38 H38        -6.7056    0.2848   53.7574 H       1  ZINC000599228306    0.0800
     39 H39        -8.7665    3.8846   54.8062 H       1  ZINC000599228306    0.0700
     40 H40        -9.1880    2.3521   55.6075 H       1  ZINC000599228306    0.0800
     41 H41        -7.6314    3.1410   55.9582 H       1  ZINC000599228306    0.0700
     42 H42        -8.2989    1.3286   52.1405 H       1  ZINC000599228306    0.0800
     43 H43        -9.5778    1.2937   53.3781 H       1  ZINC000599228306    0.0700
     44 H44        -9.1563    2.8262   52.5768 H       1  ZINC000599228306    0.0600
@<TRIPOS>BOND
     1     1     2    1
     2     1    27    1
     3     1    28    1
     4     1    29    1
     5     2     3    1
     6     3     4    2
     7     3     5    1
     8     5    25   ar
     9     5     6   ar
    10     6     7   ar
    11     6    30    1
    12     7     8    1
    13     7     9   ar
    14     9    10   ar
    15     9    31    1
    16    10    11    1
    17    10    25   ar
    18    11    12    2
    19    11    13    2
    20    11    14   am
    21    14    15    1
    22    14    32    1
    23    15    16    1
    24    15    17    1
    25    15    18    1
    26    17    33    1
    27    17    34    1
    28    17    35    1
    29    18    19    2
    30    18    20    1
    31    20    21    1
    32    21    22    1
    33    21    23    1
    34    21    24    1
    35    22    36    1
    36    22    37    1
    37    22    38    1
    38    23    39    1
    39    23    40    1
    40    23    41    1
    41    24    42    1
    42    24    43    1
    43    24    44    1
    44    25    26    1
@<TRIPOS>SUBSTRUCTURE
     1 ZINC000599228306        1 TEMP              0 ****  ****    0 ROOT


##########                                Name:    ZINC000632456679
##########                DOCK_Rotatable_Bonds:                   6
##########                         Heavy_Atoms:                  24
##########                    Molecular_Weight:              374.82
##########                DOCK_Rotatable_Bonds:                   6
##########                       Formal_Charge:          -0.0299999
##########                     HBond_Acceptors:                   9
##########                        HBond_Donors:                   1
##########                         Heavy_Atoms:                  24
##########                          Grid_Score:          -29.235399
##########                     Grid_vdw_energy:          -29.334576
##########                      Grid_es_energy:            0.099176
##########           Internal_energy_repulsive:           34.242954

@<TRIPOS>MOLECULE
ZINC000632456679
 40 41 1 0 0
SMALL
USER_CHARGES


@<TRIPOS>ATOM
      1 C1         -2.1467    2.9506   47.9348 C.3     1  ZINC000632456679   -0.1600
      2 C2         -2.1628    1.5129   48.4583 C.3     1  ZINC000632456679    0.1900
      3 C3         -2.2315    0.5413   47.2785 C.3     1  ZINC000632456679   -0.2000
      4 C4         -0.8885    1.2490   49.2629 C.3     1  ZINC000632456679   -0.6300
      5 S5          0.4416    0.7405   48.1390 S.o2    1  ZINC000632456679    2.4100
      6 C6          1.8982    0.8329   49.2163 C.3     1  ZINC000632456679   -0.6600
      7 O7          0.2329   -0.6173   47.7755 O.2     1  ZINC000632456679   -0.9300
      8 O8          0.5709    1.7201   47.1179 O.2     1  ZINC000632456679   -0.9300
      9 N9         -3.3325    1.3197   49.3188 N.am    1  ZINC000632456679   -0.7200
     10 C10        -3.4450    2.0132   50.4690 C.2     1  ZINC000632456679    0.6200
     11 O11        -2.5748    2.7980   50.7931 O.2     1  ZINC000632456679   -0.5000
     12 C12        -4.6238    1.8199   51.3346 C.2     1  ZINC000632456679   -0.0900
     13 C13        -5.4720    0.7489   51.3361 C.2     1  ZINC000632456679   -0.1300
     14 C14        -6.4190    1.0678   52.3479 C.2     1  ZINC000632456679    0.0400
     15 C15        -7.5763    0.2429   52.7754 C.ar    1  ZINC000632456679   -0.0500
     16 C16        -8.3247   -0.4549   51.8301 C.ar    1  ZINC000632456679   -0.0600
     17 C17        -9.4002   -1.2208   52.2323 C.ar    1  ZINC000632456679   -0.1100
     18 C18        -9.7376   -1.2972   53.5715 C.ar    1  ZINC000632456679   -0.0700
     19 C19        -8.9996   -0.6071   54.5170 C.ar    1  ZINC000632456679   -0.0800
     20 Cl20       -9.4299   -0.7082   56.1958 Cl      1  ZINC000632456679   -0.0400
     21 C21        -7.9155    0.1589   54.1262 C.ar    1  ZINC000632456679    0.1400
     22 F22        -7.1943    0.8327   55.0489 F       1  ZINC000632456679   -0.1100
     23 N23        -6.0659    2.2339   52.8277 N.2     1  ZINC000632456679   -0.3200
     24 O24        -5.0742    2.6612   52.2846 O.3     1  ZINC000632456679    0.1400
     25 H25        -3.0545    3.1387   47.3616 H       1  ZINC000632456679    0.0900
     26 H26        -2.0977    3.6427   48.7753 H       1  ZINC000632456679    0.0600
     27 H27        -1.2764    3.0944   47.2945 H       1  ZINC000632456679    0.0700
     28 H28        -1.3611    0.6851   46.6382 H       1  ZINC000632456679    0.0800
     29 H29        -2.2428   -0.4829   47.6514 H       1  ZINC000632456679    0.0800
     30 H30        -3.1393    0.7294   46.7052 H       1  ZINC000632456679    0.0900
     31 H31        -0.5941    2.1587   49.7861 H       1  ZINC000632456679    0.1600
     32 H32        -1.0741    0.4567   49.9880 H       1  ZINC000632456679    0.1400
     33 H33         1.7693    0.1556   50.0605 H       1  ZINC000632456679    0.1300
     34 H34         2.7859    0.5460   48.6525 H       1  ZINC000632456679    0.1300
     35 H35         2.0148    1.8526   49.5831 H       1  ZINC000632456679    0.1300
     36 H36        -4.0261    0.6926   49.0608 H       1  ZINC000632456679    0.4200
     37 H37        -5.4327   -0.1331   50.7140 H       1  ZINC000632456679    0.1900
     38 H38        -8.0638   -0.3966   50.7838 H       1  ZINC000632456679    0.1500
     39 H39        -9.9801   -1.7618   51.4992 H       1  ZINC000632456679    0.1500
     40 H40       -10.5807   -1.8974   53.8804 H       1  ZINC000632456679    0.1500
@<TRIPOS>BOND
     1     1     2    1
     2     1    25    1
     3     1    26    1
     4     1    27    1
     5     2     3    1
     6     2     4    1
     7     2     9    1
     8     3    28    1
     9     3    29    1
    10     3    30    1
    11     4     5    1
    12     4    31    1
    13     4    32    1
    14     5     6    1
    15     5     7    2
    16     5     8    2
    17     6    33    1
    18     6    34    1
    19     6    35    1
    20     9    10   am
    21     9    36    1
    22    10    11    2
    23    10    12    1
    24    12    24    1
    25    12    13    2
    26    13    14    1
    27    13    37    1
    28    14    15    1
    29    14    23    2
    30    15    21   ar
    31    15    16   ar
    32    16    17   ar
    33    16    38    1
    34    17    18   ar
    35    17    39    1
    36    18    19   ar
    37    18    40    1
    38    19    20    1
    39    19    21   ar
    40    21    22    1
    41    23    24    1
@<TRIPOS>SUBSTRUCTURE
     1 ZINC000632456679        1 TEMP              0 ****  ****    0 ROOT


##########                                Name:    ZINC001139743874
##########                DOCK_Rotatable_Bonds:                   5
##########                         Heavy_Atoms:                  28
##########                    Molecular_Weight:             382.506
##########                DOCK_Rotatable_Bonds:                   5
##########                       Formal_Charge:           0.0199992
##########                     HBond_Acceptors:                   6
##########                        HBond_Donors:                   0
##########                         Heavy_Atoms:                  28
##########                          Grid_Score:          -29.231163
##########                     Grid_vdw_energy:          -29.804827
##########                      Grid_es_energy:            0.573664
##########           Internal_energy_repulsive:           19.432138

@<TRIPOS>MOLECULE
ZINC001139743874
 58 61 1 0 0
SMALL
USER_CHARGES


@<TRIPOS>ATOM
      1 C1          3.8080    0.2452   45.2423 C.3     1  ZINC001139743874   -0.1800
      2 C2          2.9629    1.3768   45.8308 C.3     1  ZINC001139743874    0.1400
      3 C3          3.7341    2.6944   45.7309 C.3     1  ZINC001139743874   -0.1800
      4 C4          1.6519    1.4929   45.0506 C.3     1  ZINC001139743874   -0.1400
      5 O5          2.6731    1.0900   47.2243 O.3     1  ZINC001139743874   -0.3600
      6 C6          1.6227    0.2867   47.4774 C.2     1  ZINC001139743874    0.6500
      7 O7          1.5546   -0.8076   46.9534 O.2     1  ZINC001139743874   -0.5700
      8 N8          0.6468    0.6961   48.3119 N.am    1  ZINC001139743874   -0.5900
      9 C9         -0.4747   -0.1434   48.5917 C.3     1  ZINC001139743874    0.1000
     10 C10        -1.6566   -0.0492   47.5851 C.3     1  ZINC001139743874   -0.1300
     11 C11        -1.8670    1.4377   47.1771 C.3     1  ZINC001139743874   -0.0900
     12 C12        -1.6694    2.3639   48.3319 C.3     1  ZINC001139743874   -0.0800
     13 C13        -2.7464    3.4394   48.5176 C.3     1  ZINC001139743874    0.0100
     14 N14        -3.3915    2.4833   49.4465 N.3     1  ZINC001139743874   -0.4700
     15 C15        -3.8800    3.1678   50.6509 C.3     1  ZINC001139743874    0.0600
     16 C16        -4.8501    2.2731   51.3785 C.ar    1  ZINC001139743874   -0.1200
     17 C17        -5.0794    0.9766   50.9218 C.ar    1  ZINC001139743874    0.1500
     18 N18        -5.9162    0.1713   51.5301 N.ar    1  ZINC001139743874   -0.4600
     19 C19        -6.5864    0.5600   52.6173 C.ar    1  ZINC001139743874    0.0800
     20 C20        -7.4849   -0.3083   53.2694 C.ar    1  ZINC001139743874   -0.0400
     21 C21        -8.1383    0.1510   54.3763 C.ar    1  ZINC001139743874   -0.1600
     22 C22        -7.9091    1.4478   54.8331 C.ar    1  ZINC001139743874    0.1300
     23 N23        -7.0728    2.2532   54.2246 N.ar    1  ZINC001139743874   -0.4700
     24 C24        -6.4023    1.8644   53.1373 C.ar    1  ZINC001139743874    0.0800
     25 C25        -5.5001    2.7306   52.4885 C.ar    1  ZINC001139743874   -0.0400
     26 C26        -2.0914    1.8217   49.7025 C.3     1  ZINC001139743874    0.0000
     27 C27        -0.2434    2.9225   48.3046 C.3     1  ZINC001139743874   -0.1300
     28 C28         0.7169    2.0384   48.9713 C.3     1  ZINC001139743874    0.1400
     29 H29         4.7420    0.1625   45.7980 H       1  ZINC001139743874    0.0900
     30 H30         3.2585   -0.6934   45.3134 H       1  ZINC001139743874    0.0600
     31 H31         4.0255    0.4605   44.1961 H       1  ZINC001139743874    0.0700
     32 H32         3.9517    2.9097   44.6848 H       1  ZINC001139743874    0.0700
     33 H33         3.1320    3.5005   46.1501 H       1  ZINC001139743874    0.0600
     34 H34         4.6682    2.6117   46.2867 H       1  ZINC001139743874    0.0900
     35 H35         1.1023    0.5542   45.1217 H       1  ZINC001139743874    0.0700
     36 H36         1.0498    2.2990   45.4698 H       1  ZINC001139743874    0.0700
     37 H37         1.8694    1.7081   44.0044 H       1  ZINC001139743874    0.0800
     38 H38        -0.1292   -1.1769   48.6161 H       1  ZINC001139743874    0.0700
     39 H39        -0.8504    0.1087   49.5833 H       1  ZINC001139743874    0.0900
     40 H40        -1.4277   -0.6410   46.6988 H       1  ZINC001139743874    0.0700
     41 H41        -2.5643   -0.4301   48.0533 H       1  ZINC001139743874    0.0800
     42 H42        -1.1568    1.6939   46.3910 H       1  ZINC001139743874    0.0600
     43 H43        -2.8796    1.5605   46.7927 H       1  ZINC001139743874    0.0700
     44 H44        -2.3836    4.3461   49.0016 H       1  ZINC001139743874    0.0700
     45 H45        -3.3283    3.6391   47.6178 H       1  ZINC001139743874    0.0900
     46 H46        -3.0386    3.3986   51.3042 H       1  ZINC001139743874    0.0600
     47 H47        -4.3823    4.0919   50.3651 H       1  ZINC001139743874    0.0900
     48 H48        -4.5550    0.6268   50.0448 H       1  ZINC001139743874    0.1700
     49 H49        -7.6522   -1.3103   52.9028 H       1  ZINC001139743874    0.1500
     50 H50        -8.8331   -0.4903   54.8981 H       1  ZINC001139743874    0.1500
     51 H51        -8.4337    1.7979   55.7099 H       1  ZINC001139743874    0.1700
     52 H52        -5.3302    3.7314   52.8573 H       1  ZINC001139743874    0.1400
     53 H53        -2.1523    0.7342   49.7455 H       1  ZINC001139743874    0.1000
     54 H54        -1.5357    2.2517   50.5356 H       1  ZINC001139743874    0.0700
     55 H55         0.0620    3.0595   47.2673 H       1  ZINC001139743874    0.0700
     56 H56        -0.2345    3.8913   48.8039 H       1  ZINC001139743874    0.0800
     57 H57         0.4612    1.9478   50.0270 H       1  ZINC001139743874    0.0800
     58 H58         1.7228    2.4459   48.8702 H       1  ZINC001139743874    0.1000
@<TRIPOS>BOND
     1     1     2    1
     2     1    29    1
     3     1    30    1
     4     1    31    1
     5     2     3    1
     6     2     4    1
     7     2     5    1
     8     3    32    1
     9     3    33    1
    10     3    34    1
    11     4    35    1
    12     4    36    1
    13     4    37    1
    14     5     6    1
    15     6     7    2
    16     6     8   am
    17     8    28    1
    18     8     9    1
    19     9    10    1
    20     9    38    1
    21     9    39    1
    22    10    11    1
    23    10    40    1
    24    10    41    1
    25    11    12    1
    26    11    42    1
    27    11    43    1
    28    12    26    1
    29    12    13    1
    30    12    27    1
    31    13    14    1
    32    13    44    1
    33    13    45    1
    34    14    15    1
    35    14    26    1
    36    15    16    1
    37    15    46    1
    38    15    47    1
    39    16    25   ar
    40    16    17   ar
    41    17    18   ar
    42    17    48    1
    43    18    19   ar
    44    19    24   ar
    45    19    20   ar
    46    20    21   ar
    47    20    49    1
    48    21    22   ar
    49    21    50    1
    50    22    23   ar
    51    22    51    1
    52    23    24   ar
    53    24    25   ar
    54    25    52    1
    55    26    53    1
    56    26    54    1
    57    27    28    1
    58    27    55    1
    59    27    56    1
    60    28    57    1
    61    28    58    1
@<TRIPOS>SUBSTRUCTURE
     1 ZINC001139743874        1 TEMP              0 ****  ****    0 ROOT


##########                                Name:    ZINC000171059239
##########                DOCK_Rotatable_Bonds:                   8
##########                         Heavy_Atoms:                  25
##########                    Molecular_Weight:              333.39
##########                DOCK_Rotatable_Bonds:                   8
##########                       Formal_Charge:         1.10269e-06
##########                     HBond_Acceptors:                   5
##########                        HBond_Donors:                   4
##########                         Heavy_Atoms:                  25
##########                          Grid_Score:          -29.202370
##########                     Grid_vdw_energy:          -27.568466
##########                      Grid_es_energy:           -1.633903
##########           Internal_energy_repulsive:            8.871362

@<TRIPOS>MOLECULE
ZINC000171059239
 44 46 1 0 0
SMALL
USER_CHARGES


@<TRIPOS>ATOM
      1 N1         -6.8011   -1.6232   51.9112 N.am    1  ZINC000171059239   -0.8500
      2 C2         -7.8432   -0.8074   52.1656 C.2     1  ZINC000171059239    0.5600
      3 O3         -8.9784   -1.2395   52.1207 O.2     1  ZINC000171059239   -0.5400
      4 C4         -7.6056    0.6133   52.4989 C.ar    1  ZINC000171059239   -0.1400
      5 C5         -8.6758    1.4417   52.8397 C.ar    1  ZINC000171059239   -0.0900
      6 C6         -8.4471    2.7665   53.1501 C.ar    1  ZINC000171059239   -0.1200
      7 C7         -7.1605    3.2742   53.1235 C.ar    1  ZINC000171059239   -0.0800
      8 C8         -6.0949    2.4583   52.7860 C.ar    1  ZINC000171059239   -0.0900
      9 C9         -4.6969    3.0200   52.7592 C.3     1  ZINC000171059239   -0.0900
     10 C10        -4.3637    3.4917   51.3424 C.3     1  ZINC000171059239    0.1400
     11 N11        -4.2405    2.3306   50.4575 N.am    1  ZINC000171059239   -0.7400
     12 C12        -3.3683    2.3556   49.4304 C.2     1  ZINC000171059239    0.7000
     13 O13        -2.6826    3.3413   49.2390 O.2     1  ZINC000171059239   -0.5700
     14 N14        -3.2561    1.2881   48.6153 N.am    1  ZINC000171059239   -0.6800
     15 C15        -2.3524    1.3141   47.5512 C.ar    1  ZINC000171059239    0.1700
     16 C16        -0.9772    1.0961   47.7797 C.ar    1  ZINC000171059239   -0.0600
     17 C17        -0.4835    0.8493   49.0703 C.ar    1  ZINC000171059239   -0.1100
     18 C18         0.8497    0.6429   49.2540 C.ar    1  ZINC000171059239   -0.1100
     19 C19         1.7346    0.6731   48.1779 C.ar    1  ZINC000171059239   -0.1200
     20 C20         1.2915    0.9095   46.9129 C.ar    1  ZINC000171059239   -0.1000
     21 C21        -0.0785    1.1266   46.6849 C.ar    1  ZINC000171059239   -0.0400
     22 C22        -0.5714    1.3730   45.3923 C.ar    1  ZINC000171059239   -0.1200
     23 C23        -1.9035    1.5795   45.2006 C.ar    1  ZINC000171059239   -0.0900
     24 C24        -2.7964    1.5472   46.2675 C.ar    1  ZINC000171059239   -0.1200
     25 C25        -6.3091    1.1305   52.4797 C.ar    1  ZINC000171059239   -0.0500
     26 H26        -6.9570   -2.5550   51.6914 H       1  ZINC000171059239    0.4100
     27 H27        -5.8953   -1.2777   51.9443 H       1  ZINC000171059239    0.4000
     28 H28        -9.6807    1.0467   52.8600 H       1  ZINC000171059239    0.1300
     29 H29        -9.2744    3.4087   53.4140 H       1  ZINC000171059239    0.1300
     30 H30        -6.9869    4.3119   53.3670 H       1  ZINC000171059239    0.1300
     31 H31        -4.6305    3.8625   53.4477 H       1  ZINC000171059239    0.0800
     32 H32        -3.9892    2.2478   53.0609 H       1  ZINC000171059239    0.0800
     33 H33        -5.1594    4.1422   50.9795 H       1  ZINC000171059239    0.0700
     34 H34        -3.4223    4.0409   51.3543 H       1  ZINC000171059239    0.0700
     35 H35        -4.7866    1.5437   50.6109 H       1  ZINC000171059239    0.4000
     36 H36        -3.8031    0.5017   48.7680 H       1  ZINC000171059239    0.4100
     37 H37        -1.1578    0.8237   49.9136 H       1  ZINC000171059239    0.1200
     38 H38         1.2269    0.4532   50.2480 H       1  ZINC000171059239    0.1200
     39 H39         2.7877    0.5070   48.3504 H       1  ZINC000171059239    0.1200
     40 H40         1.9890    0.9305   46.0886 H       1  ZINC000171059239    0.1300
     41 H41         0.1060    1.3988   44.5516 H       1  ZINC000171059239    0.1300
     42 H42        -2.2736    1.7682   44.2037 H       1  ZINC000171059239    0.1300
     43 H43        -3.8483    1.7139   46.0885 H       1  ZINC000171059239    0.1400
     44 H44        -5.4767    0.4947   52.2166 H       1  ZINC000171059239    0.1400
@<TRIPOS>BOND
     1     1     2   am
     2     1    26    1
     3     1    27    1
     4     2     3    2
     5     2     4    1
     6     4    25   ar
     7     4     5   ar
     8     5     6   ar
     9     5    28    1
    10     6     7   ar
    11     6    29    1
    12     7     8   ar
    13     7    30    1
    14     8     9    1
    15     8    25   ar
    16     9    10    1
    17     9    31    1
    18     9    32    1
    19    10    11    1
    20    10    33    1
    21    10    34    1
    22    11    12   am
    23    11    35    1
    24    12    13    2
    25    12    14   am
    26    14    15    1
    27    14    36    1
    28    15    24   ar
    29    15    16   ar
    30    16    21   ar
    31    16    17   ar
    32    17    18   ar
    33    17    37    1
    34    18    19   ar
    35    18    38    1
    36    19    20   ar
    37    19    39    1
    38    20    21   ar
    39    20    40    1
    40    21    22   ar
    41    22    23   ar
    42    22    41    1
    43    23    24   ar
    44    23    42    1
    45    24    43    1
    46    25    44    1
@<TRIPOS>SUBSTRUCTURE
     1 ZINC000171059239        1 TEMP              0 ****  ****    0 ROOT


##########                                Name:    ZINC000291574087
##########                DOCK_Rotatable_Bonds:                   8
##########                         Heavy_Atoms:                  23
##########                    Molecular_Weight:             387.249
##########                DOCK_Rotatable_Bonds:                   8
##########                       Formal_Charge:          -0.0400007
##########                     HBond_Acceptors:                   6
##########                        HBond_Donors:                   2
##########                         Heavy_Atoms:                  23
##########                          Grid_Score:          -29.161911
##########                     Grid_vdw_energy:          -28.508904
##########                      Grid_es_energy:           -0.653008
##########           Internal_energy_repulsive:           15.566966

@<TRIPOS>MOLECULE
ZINC000291574087
 43 44 1 0 0
SMALL
USER_CHARGES


@<TRIPOS>ATOM
      1 C1         -7.4414   -1.0678   51.3536 C.3     1  ZINC000291574087    0.0200
      2 O2         -8.4556   -0.0767   51.5310 O.3     1  ZINC000291574087   -0.3700
      3 C3         -9.0716   -0.0998   52.8202 C.3     1  ZINC000291574087    0.1400
      4 C4         -8.0737    0.3907   53.8711 C.3     1  ZINC000291574087   -0.1500
      5 C5         -9.5025   -1.5294   53.1540 C.3     1  ZINC000291574087    0.0900
      6 N6        -10.2087   -1.5395   54.4375 N.am    1  ZINC000291574087   -0.6900
      7 C7        -10.3224   -2.6871   55.1351 C.2     1  ZINC000291574087    0.5100
      8 O8         -9.8410   -3.7123   54.6994 O.2     1  ZINC000291574087   -0.5100
      9 C9        -11.0408   -2.6969   56.4444 C.2     1  ZINC000291574087    0.5100
     10 O10       -10.9692   -3.6682   57.1688 O.2     1  ZINC000291574087   -0.4900
     11 N11       -11.7685   -1.6271   56.8217 N.am    1  ZINC000291574087   -0.6400
     12 C12       -12.4413   -1.6362   58.0478 C.ar    1  ZINC000291574087    0.1300
     13 C13       -13.6117   -2.3686   58.1936 C.ar    1  ZINC000291574087   -0.1000
     14 C14       -14.2741   -2.3764   59.4060 C.ar    1  ZINC000291574087   -0.0400
     15 C15       -15.5445   -3.1714   59.5641 C.3     1  ZINC000291574087   -0.1300
     16 C16       -13.7729   -1.6558   60.4752 C.ar    1  ZINC000291574087   -0.0900
     17 Br17      -14.6831   -1.6712   62.1327 Br      1  ZINC000291574087   -0.0300
     18 C18       -12.6065   -0.9243   60.3348 C.ar    1  ZINC000291574087   -0.1000
     19 C19       -11.9360   -0.9160   59.1258 C.ar    1  ZINC000291574087    0.0700
     20 F20       -10.7975   -0.2019   58.9885 F       1  ZINC000291574087   -0.1300
     21 C21       -10.2983    0.8147   52.8157 C.3     1  ZINC000291574087   -0.1900
     22 C22       -10.5256    1.6855   51.5785 C.3     1  ZINC000291574087   -0.1700
     23 C23       -11.4273    0.4774   51.8398 C.3     1  ZINC000291574087   -0.1600
     24 H24        -7.0232   -0.9842   50.3504 H       1  ZINC000291574087    0.0900
     25 H25        -6.6522   -0.9159   52.0900 H       1  ZINC000291574087    0.0400
     26 H26        -7.8752   -2.0591   51.4850 H       1  ZINC000291574087    0.0500
     27 H27        -7.7667    1.4092   53.6333 H       1  ZINC000291574087    0.0700
     28 H28        -8.5436    0.3731   54.8544 H       1  ZINC000291574087    0.0800
     29 H29        -7.1998   -0.2608   53.8743 H       1  ZINC000291574087    0.0700
     30 H30       -10.1646   -1.9013   52.3721 H       1  ZINC000291574087    0.0900
     31 H31        -8.6219   -2.1685   53.2189 H       1  ZINC000291574087    0.0800
     32 H32       -10.5945   -0.7202   54.7852 H       1  ZINC000291574087    0.4200
     33 H33       -11.8257   -0.8508   56.2430 H       1  ZINC000291574087    0.4300
     34 H34       -14.0043   -2.9316   57.3598 H       1  ZINC000291574087    0.1600
     35 H35       -15.3024   -4.1808   59.8966 H       1  ZINC000291574087    0.0800
     36 H36       -16.1852   -2.6895   60.3026 H       1  ZINC000291574087    0.0800
     37 H37       -16.0647   -3.2190   58.6074 H       1  ZINC000291574087    0.0800
     38 H38       -12.2179   -0.3624   61.1714 H       1  ZINC000291574087    0.1500
     39 H39       -10.5772    1.2319   53.7833 H       1  ZINC000291574087    0.1100
     40 H40       -10.9541    2.6760   51.7319 H       1  ZINC000291574087    0.1000
     41 H41        -9.8013    1.6070   50.7677 H       1  ZINC000291574087    0.1000
     42 H42       -11.2963   -0.3960   51.2010 H       1  ZINC000291574087    0.1000
     43 H43       -12.4490    0.6730   52.1653 H       1  ZINC000291574087    0.1000
@<TRIPOS>BOND
     1     1     2    1
     2     1    24    1
     3     1    25    1
     4     1    26    1
     5     2     3    1
     6     3     4    1
     7     3     5    1
     8     3    21    1
     9     4    27    1
    10     4    28    1
    11     4    29    1
    12     5     6    1
    13     5    30    1
    14     5    31    1
    15     6     7   am
    16     6    32    1
    17     7     8    2
    18     7     9    1
    19     9    10    2
    20     9    11   am
    21    11    12    1
    22    11    33    1
    23    12    19   ar
    24    12    13   ar
    25    13    14   ar
    26    13    34    1
    27    14    15    1
    28    14    16   ar
    29    15    35    1
    30    15    36    1
    31    15    37    1
    32    16    17    1
    33    16    18   ar
    34    18    19   ar
    35    18    38    1
    36    19    20    1
    37    21    23    1
    38    21    22    1
    39    21    39    1
    40    22    23    1
    41    22    40    1
    42    22    41    1
    43    23    42    1
    44    23    43    1
@<TRIPOS>SUBSTRUCTURE
     1 ZINC000291574087        1 TEMP              0 ****  ****    0 ROOT


##########                                Name:    ZINC001707162141
##########                DOCK_Rotatable_Bonds:                   9
##########                         Heavy_Atoms:                  25
##########                    Molecular_Weight:               344.5
##########                DOCK_Rotatable_Bonds:                   9
##########                       Formal_Charge:          -0.0299999
##########                     HBond_Acceptors:                   5
##########                        HBond_Donors:                   1
##########                         Heavy_Atoms:                  25
##########                          Grid_Score:          -29.152821
##########                     Grid_vdw_energy:          -29.218006
##########                      Grid_es_energy:            0.065186
##########           Internal_energy_repulsive:           82.443039

@<TRIPOS>MOLECULE
ZINC001707162141
 57 59 1 0 0
SMALL
USER_CHARGES


@<TRIPOS>ATOM
      1 C1        -10.6622   -0.8138   51.8239 C.3     1  ZINC001707162141   -0.1800
      2 C2         -9.8354   -0.4580   53.0611 C.3     1  ZINC001707162141    0.1700
      3 H3        -10.2301    0.4525   53.5122 H       1  ZINC001707162141    0.1000
      4 N4         -9.9094   -1.5575   54.0324 N.3     1  ZINC001707162141   -0.6400
      5 C5         -9.5053   -1.1058   55.3706 C.3     1  ZINC001707162141    0.0700
      6 C6        -10.0987   -2.0417   56.4255 C.3     1  ZINC001707162141    0.1500
      7 H7         -9.6433   -3.0280   56.3367 H       1  ZINC001707162141    0.0700
      8 C8        -11.6129   -2.1518   56.2208 C.3     1  ZINC001707162141   -0.1200
      9 C9        -12.2190   -2.9754   57.3594 C.3     1  ZINC001707162141   -0.0900
     10 H10       -11.7603   -3.9641   57.3762 H       1  ZINC001707162141    0.0700
     11 C11       -13.7266   -3.1167   57.1398 C.3     1  ZINC001707162141   -0.1500
     12 C12       -11.9619   -2.2713   58.6936 C.3     1  ZINC001707162141   -0.1300
     13 C13       -10.4517   -2.1626   58.9263 C.3     1  ZINC001707162141    0.1100
     14 N14        -9.8410   -1.4991   57.7663 N.am    1  ZINC001707162141   -0.6100
     15 C15        -9.0596   -0.4131   57.9291 C.2     1  ZINC001707162141    0.5100
     16 O16        -8.5612    0.1256   56.9635 O.2     1  ZINC001707162141   -0.4800
     17 C17        -8.8051    0.1319   59.3109 C.3     1  ZINC001707162141   -0.1400
     18 C18        -8.0319    1.4479   59.2057 C.3     1  ZINC001707162141   -0.0900
     19 C19        -8.9945    2.5762   58.8296 C.3     1  ZINC001707162141   -0.0900
     20 C20        -8.1986    3.8512   58.5433 C.3     1  ZINC001707162141   -0.1500
     21 C21        -8.4769    4.5768   57.2253 C.3     1  ZINC001707162141   -0.1800
     22 C22        -7.1703    3.8029   57.4114 C.3     1  ZINC001707162141   -0.1800
     23 C23        -8.3996   -0.2381   52.6595 C.ar    1  ZINC001707162141    0.3500
     24 N24        -7.8843    0.9709   52.7571 N.ar    1  ZINC001707162141   -0.5000
     25 C25        -6.6257    1.2007   52.4190 C.ar    1  ZINC001707162141    0.1500
     26 C26        -5.8522    0.1520   51.9470 C.ar    1  ZINC001707162141   -0.2400
     27 C27        -6.4310   -1.1039   51.8532 C.ar    1  ZINC001707162141    0.1500
     28 N28        -7.6944   -1.2589   52.2150 N.ar    1  ZINC001707162141   -0.5200
     29 H29       -11.7007   -0.9729   52.1143 H       1  ZINC001707162141    0.0600
     30 H30       -10.6073    0.0020   51.1032 H       1  ZINC001707162141    0.0600
     31 H31       -10.2676   -1.7243   51.3728 H       1  ZINC001707162141    0.0600
     32 H32       -10.8335   -1.9620   54.0510 H       1  ZINC001707162141    0.3300
     33 H33        -8.4179   -1.1174   55.4450 H       1  ZINC001707162141    0.1000
     34 H34        -9.8702   -0.0924   55.5375 H       1  ZINC001707162141    0.0200
     35 H35       -12.0532   -1.1547   56.2188 H       1  ZINC001707162141    0.0700
     36 H36       -11.8167   -2.6419   55.2688 H       1  ZINC001707162141    0.0700
     37 H37       -14.1856   -2.1282   57.1235 H       1  ZINC001707162141    0.0500
     38 H38       -13.9100   -3.6182   56.1896 H       1  ZINC001707162141    0.0600
     39 H39       -14.1582   -3.7044   57.9500 H       1  ZINC001707162141    0.0600
     40 H40       -12.4141   -2.8465   59.5015 H       1  ZINC001707162141    0.0700
     41 H41       -12.3989   -1.2731   58.6683 H       1  ZINC001707162141    0.0700
     42 H42       -10.0271   -3.1598   59.0423 H       1  ZINC001707162141    0.0600
     43 H43       -10.2617   -1.5756   59.8249 H       1  ZINC001707162141    0.0800
     44 H44        -9.7565    0.3085   59.8126 H       1  ZINC001707162141    0.0800
     45 H45        -8.2205   -0.5883   59.8834 H       1  ZINC001707162141    0.0800
     46 H46        -7.5653    1.6729   60.1647 H       1  ZINC001707162141    0.0700
     47 H47        -7.2620    1.3567   58.4395 H       1  ZINC001707162141    0.0700
     48 H48        -9.5577    2.2922   57.9407 H       1  ZINC001707162141    0.0600
     49 H49        -9.6839    2.7558   59.6546 H       1  ZINC001707162141    0.0600
     50 H50        -7.9603    4.4622   59.4140 H       1  ZINC001707162141    0.1000
     51 H51        -9.2271    4.1458   56.5623 H       1  ZINC001707162141    0.0900
     52 H52        -8.4220    5.6654   57.2289 H       1  ZINC001707162141    0.0900
     53 H53        -6.2557    4.3823   57.5373 H       1  ZINC001707162141    0.0900
     54 H54        -7.0608    2.8629   56.8707 H       1  ZINC001707162141    0.0900
     55 H55        -6.2082    2.1930   52.5051 H       1  ZINC001707162141    0.1600
     56 H56        -4.8231    0.3095   51.6595 H       1  ZINC001707162141    0.1400
     57 H57        -5.8587   -1.9445   51.4895 H       1  ZINC001707162141    0.1600
@<TRIPOS>BOND
     1     1     2    1
     2     1    29    1
     3     1    30    1
     4     1    31    1
     5     2     3    1
     6     2     4    1
     7     2    23    1
     8     4     5    1
     9     4    32    1
    10     5     6    1
    11     5    33    1
    12     5    34    1
    13     6     7    1
    14     6    14    1
    15     6     8    1
    16     8     9    1
    17     8    35    1
    18     8    36    1
    19     9    10    1
    20     9    11    1
    21     9    12    1
    22    11    37    1
    23    11    38    1
    24    11    39    1
    25    12    13    1
    26    12    40    1
    27    12    41    1
    28    13    14    1
    29    13    42    1
    30    13    43    1
    31    14    15   am
    32    15    16    2
    33    15    17    1
    34    17    18    1
    35    17    44    1
    36    17    45    1
    37    18    19    1
    38    18    46    1
    39    18    47    1
    40    19    20    1
    41    19    48    1
    42    19    49    1
    43    20    22    1
    44    20    21    1
    45    20    50    1
    46    21    22    1
    47    21    51    1
    48    21    52    1
    49    22    53    1
    50    22    54    1
    51    23    28   ar
    52    23    24   ar
    53    24    25   ar
    54    25    26   ar
    55    25    55    1
    56    26    27   ar
    57    26    56    1
    58    27    28   ar
    59    27    57    1
@<TRIPOS>SUBSTRUCTURE
     1 ZINC001707162141        1 TEMP              0 ****  ****    0 ROOT


##########                                Name:    ZINC000826052721
##########                DOCK_Rotatable_Bonds:                   3
##########                         Heavy_Atoms:                  29
##########                    Molecular_Weight:             393.399
##########                DOCK_Rotatable_Bonds:                   3
##########                       Formal_Charge:        -4.47035e-07
##########                     HBond_Acceptors:                   9
##########                        HBond_Donors:                   2
##########                         Heavy_Atoms:                  29
##########                          Grid_Score:          -29.127268
##########                     Grid_vdw_energy:          -25.366192
##########                      Grid_es_energy:           -3.761076
##########           Internal_energy_repulsive:           21.000435

@<TRIPOS>MOLECULE
ZINC000826052721
 46 50 1 0 0
SMALL
USER_CHARGES


@<TRIPOS>ATOM
      1 C1         -5.2212    2.4147   57.1253 C.3     1  ZINC000826052721   -0.0400
      2 N2         -6.3749    1.9138   56.3662 N.4     1  ZINC000826052721   -0.3800
      3 H3         -6.1046    1.0950   55.8423 H       1  ZINC000826052721    0.4300
      4 C4         -6.8445    2.9526   55.4451 C.3     1  ZINC000826052721    0.0500
      5 C5         -8.1149    2.5198   54.7621 C.ar    1  ZINC000826052721   -0.1300
      6 C6         -8.4956    3.1688   53.5974 C.ar    1  ZINC000826052721   -0.1000
      7 C7         -9.6566    2.8058   52.9441 C.ar    1  ZINC000826052721   -0.1000
      8 C8        -10.4446    1.7905   53.4526 C.ar    1  ZINC000826052721   -0.0800
      9 C9        -10.0662    1.1420   54.6117 C.ar    1  ZINC000826052721   -0.0800
     10 C10        -8.9004    1.5050   55.2672 C.ar    1  ZINC000826052721   -0.1200
     11 C11        -8.5206    0.7704   56.5275 C.3     1  ZINC000826052721    0.1100
     12 H12        -8.1175   -0.2087   56.2687 H       1  ZINC000826052721    0.1100
     13 N13        -9.7107    0.6011   57.3717 N.3     1  ZINC000826052721   -0.6200
     14 C14        -9.4282   -0.1829   58.4748 C.ar    1  ZINC000826052721    0.1600
     15 C15        -9.5150   -1.5779   58.4113 C.ar    1  ZINC000826052721   -0.0400
     16 C16        -9.9135   -2.2439   57.1543 C.2     1  ZINC000826052721    0.0700
     17 N17        -9.6228   -1.8475   55.9129 N.2     1  ZINC000826052721   -0.3800
     18 N18       -10.1498   -2.6994   55.1013 N.2     1  ZINC000826052721   -0.1600
     19 N19       -10.7648   -3.6059   55.7765 N.2     1  ZINC000826052721   -0.1700
     20 N20       -10.6402   -3.3577   57.0354 N.pl3   1  ZINC000826052721   -0.3400
     21 C21        -9.2156   -2.3378   59.5512 C.ar    1  ZINC000826052721    0.1800
     22 N22        -8.8648   -1.7747   60.6798 N.ar    1  ZINC000826052721   -0.4700
     23 C23        -8.7678   -0.4447   60.8082 C.ar    1  ZINC000826052721    0.0900
     24 C24        -8.3903    0.1342   62.0335 C.ar    1  ZINC000826052721    0.1700
     25 F25        -8.1189   -0.6510   63.0988 F       1  ZINC000826052721   -0.1100
     26 C26        -8.2981    1.4905   62.1422 C.ar    1  ZINC000826052721   -0.1900
     27 C27        -8.5739    2.3179   61.0552 C.ar    1  ZINC000826052721    0.1300
     28 F28        -8.4744    3.6581   61.1938 F       1  ZINC000826052721   -0.1300
     29 C29        -8.9437    1.7897   59.8521 C.ar    1  ZINC000826052721   -0.1500
     30 C30        -9.0472    0.3992   59.7069 C.ar    1  ZINC000826052721   -0.0600
     31 C31        -7.4642    1.5692   57.2922 C.3     1  ZINC000826052721    0.0000
     32 H32        -5.5156    3.2971   57.6936 H       1  ZINC000826052721    0.1200
     33 H33        -4.8731    1.6412   57.8099 H       1  ZINC000826052721    0.1300
     34 H34        -4.4190    2.6775   56.4358 H       1  ZINC000826052721    0.1200
     35 H35        -6.0778    3.1396   54.6931 H       1  ZINC000826052721    0.1400
     36 H36        -7.0310    3.8702   56.0031 H       1  ZINC000826052721    0.1400
     37 H37        -7.8806    3.9621   53.1989 H       1  ZINC000826052721    0.1300
     38 H38        -9.9485    3.3143   52.0372 H       1  ZINC000826052721    0.1300
     39 H39       -11.3538    1.5047   52.9445 H       1  ZINC000826052721    0.1300
     40 H40       -10.6812    0.3480   55.0088 H       1  ZINC000826052721    0.1400
     41 H41       -10.4783    0.2164   56.8418 H       1  ZINC000826052721    0.4100
     42 H42        -9.2801   -3.4146   59.4977 H       1  ZINC000826052721    0.1800
     43 H43        -8.0076    1.9300   63.0850 H       1  ZINC000826052721    0.1600
     44 H44        -9.1558    2.4399   59.0161 H       1  ZINC000826052721    0.1400
     45 H45        -7.9109    2.4810   57.6885 H       1  ZINC000826052721    0.1400
     46 H46        -7.0705    0.9658   58.1102 H       1  ZINC000826052721    0.1400
@<TRIPOS>BOND
     1     1     2    1
     2     1    32    1
     3     1    33    1
     4     1    34    1
     5     2     3    1
     6     2    31    1
     7     2     4    1
     8     4     5    1
     9     4    35    1
    10     4    36    1
    11     5    10   ar
    12     5     6   ar
    13     6     7   ar
    14     6    37    1
    15     7     8   ar
    16     7    38    1
    17     8     9   ar
    18     8    39    1
    19     9    10   ar
    20     9    40    1
    21    10    11    1
    22    11    12    1
    23    11    13    1
    24    11    31    1
    25    13    14    1
    26    13    41    1
    27    14    30   ar
    28    14    15   ar
    29    15    16    1
    30    15    21   ar
    31    16    20    1
    32    16    17    2
    33    17    18    1
    34    18    19    2
    35    19    20    1
    36    21    22   ar
    37    21    42    1
    38    22    23   ar
    39    23    30   ar
    40    23    24   ar
    41    24    25    1
    42    24    26   ar
    43    26    27   ar
    44    26    43    1
    45    27    28    1
    46    27    29   ar
    47    29    30   ar
    48    29    44    1
    49    31    45    1
    50    31    46    1
@<TRIPOS>SUBSTRUCTURE
     1 ZINC000826052721        1 TEMP              0 ****  ****    0 ROOT


##########                                Name:    ZINC000558052810
##########                DOCK_Rotatable_Bonds:                   9
##########                         Heavy_Atoms:                  30
##########                    Molecular_Weight:             424.524
##########                DOCK_Rotatable_Bonds:                   9
##########                       Formal_Charge:          -0.0200002
##########                     HBond_Acceptors:                   8
##########                        HBond_Donors:                   1
##########                         Heavy_Atoms:                  30
##########                          Grid_Score:          -29.126783
##########                     Grid_vdw_energy:          -28.777447
##########                      Grid_es_energy:           -0.349337
##########           Internal_energy_repulsive:           10.627639

@<TRIPOS>MOLECULE
ZINC000558052810
 54 56 1 0 0
SMALL
USER_CHARGES


@<TRIPOS>ATOM
      1 C1        -17.4261   -0.8047   60.9793 C.3     1  ZINC000558052810   -0.1700
      2 C2        -17.5028   -2.0669   60.1180 C.3     1  ZINC000558052810    0.1100
      3 N3        -16.3523   -2.1105   59.2121 N.am    1  ZINC000558052810   -0.6100
      4 C4        -16.4407   -1.4956   57.8854 C.3     1  ZINC000558052810    0.0700
      5 C5        -15.2123   -2.7163   59.5994 C.2     1  ZINC000558052810    0.5600
      6 O6        -15.1388   -3.2263   60.7003 O.2     1  ZINC000558052810   -0.5300
      7 C7        -14.0511   -2.7603   58.6852 C.ar    1  ZINC000558052810   -0.1100
      8 C8        -13.8043   -3.9020   57.9211 C.ar    1  ZINC000558052810   -0.1100
      9 C9        -12.7196   -3.9406   57.0684 C.ar    1  ZINC000558052810   -0.1000
     10 C10       -11.8744   -2.8516   56.9681 C.ar    1  ZINC000558052810   -0.1300
     11 C11       -12.1112   -1.7102   57.7251 C.ar    1  ZINC000558052810    0.1400
     12 N12       -11.2526   -0.6108   57.6202 N.am    1  ZINC000558052810   -0.6600
     13 C13       -10.0013   -0.6834   58.1156 C.2     1  ZINC000558052810    0.5600
     14 O14        -9.6186   -1.7047   58.6537 O.2     1  ZINC000558052810   -0.4800
     15 C15        -9.0968    0.4747   58.0051 C.ar    1  ZINC000558052810   -0.1900
     16 C16        -8.9453    1.3652   59.0741 C.ar    1  ZINC000558052810   -0.0200
     17 C17        -8.0837    2.4370   58.9200 C.ar    1  ZINC000558052810   -0.1900
     18 C18        -7.4025    2.5981   57.7265 C.ar    1  ZINC000558052810    0.1500
     19 N19        -7.5585    1.7488   56.7302 N.ar    1  ZINC000558052810   -0.4900
     20 C20        -8.3654    0.7024   56.8256 C.ar    1  ZINC000558052810    0.1600
     21 S21        -8.5356   -0.4005   55.4620 S.3     1  ZINC000558052810    0.0600
     22 C22        -8.4306    0.7764   54.0909 C.3     1  ZINC000558052810   -0.0700
     23 C23        -9.2749    0.2867   52.9427 C.2     1  ZINC000558052810   -0.2000
     24 C24        -8.9639   -0.6565   52.0217 C.2     1  ZINC000558052810   -0.0100
     25 C25        -7.6815   -1.4432   51.9334 C.3     1  ZINC000558052810   -0.0800
     26 O26       -10.0218   -0.7521   51.2041 O.3     1  ZINC000558052810    0.1000
     27 N27       -10.9039    0.0090   51.5279 N.2     1  ZINC000558052810   -0.3600
     28 C28       -10.5774    0.7008   52.5812 C.2     1  ZINC000558052810    0.0300
     29 C29       -11.4176    1.7435   53.2725 C.3     1  ZINC000558052810   -0.0800
     30 C30       -13.2017   -1.6588   58.5793 C.ar    1  ZINC000558052810   -0.0700
     31 H31       -16.5051   -0.8179   61.5621 H       1  ZINC000558052810    0.0600
     32 H32       -17.4366    0.0753   60.3362 H       1  ZINC000558052810    0.0600
     33 H33       -18.2821   -0.7723   61.6533 H       1  ZINC000558052810    0.0700
     34 H34       -17.4924   -2.9468   60.7612 H       1  ZINC000558052810    0.0800
     35 H35       -18.4239   -2.0537   59.5352 H       1  ZINC000558052810    0.0800
     36 H36       -16.2041   -0.4342   57.9603 H       1  ZINC000558052810    0.0600
     37 H37       -15.7325   -1.9792   57.2128 H       1  ZINC000558052810    0.0800
     38 H38       -17.4517   -1.6157   57.4960 H       1  ZINC000558052810    0.0700
     39 H39       -14.4619   -4.7553   57.9972 H       1  ZINC000558052810    0.1400
     40 H40       -12.5303   -4.8250   56.4781 H       1  ZINC000558052810    0.1400
     41 H41       -11.0270   -2.8879   56.2994 H       1  ZINC000558052810    0.1300
     42 H42       -11.5578    0.2038   57.1911 H       1  ZINC000558052810    0.4100
     43 H43        -9.4878    1.2196   59.9966 H       1  ZINC000558052810    0.1400
     44 H44        -7.9444    3.1429   59.7254 H       1  ZINC000558052810    0.1500
     45 H45        -6.7307    3.4355   57.6088 H       1  ZINC000558052810    0.1700
     46 H46        -8.7937    1.7502   54.4194 H       1  ZINC000558052810    0.1000
     47 H47        -7.3936    0.8656   53.7671 H       1  ZINC000558052810    0.1000
     48 H48        -7.7755   -2.3580   52.5186 H       1  ZINC000558052810    0.0900
     49 H49        -7.4818   -1.6968   50.8923 H       1  ZINC000558052810    0.0900
     50 H50        -6.8599   -0.8439   52.3255 H       1  ZINC000558052810    0.0900
     51 H51       -12.0262    1.2683   54.0418 H       1  ZINC000558052810    0.0800
     52 H52       -10.7673    2.4879   53.7319 H       1  ZINC000558052810    0.0800
     53 H53       -12.0670    2.2286   52.5437 H       1  ZINC000558052810    0.0800
     54 H54       -13.3876   -0.7727   59.1681 H       1  ZINC000558052810    0.1500
@<TRIPOS>BOND
     1     1     2    1
     2     1    31    1
     3     1    32    1
     4     1    33    1
     5     2     3    1
     6     2    34    1
     7     2    35    1
     8     3     4    1
     9     3     5   am
    10     4    36    1
    11     4    37    1
    12     4    38    1
    13     5     6    2
    14     5     7    1
    15     7    30   ar
    16     7     8   ar
    17     8     9   ar
    18     8    39    1
    19     9    10   ar
    20     9    40    1
    21    10    11   ar
    22    10    41    1
    23    11    12    1
    24    11    30   ar
    25    12    13   am
    26    12    42    1
    27    13    14    2
    28    13    15    1
    29    15    20   ar
    30    15    16   ar
    31    16    17   ar
    32    16    43    1
    33    17    18   ar
    34    17    44    1
    35    18    19   ar
    36    18    45    1
    37    19    20   ar
    38    20    21    1
    39    21    22    1
    40    22    23    1
    41    22    46    1
    42    22    47    1
    43    23    28    1
    44    23    24    2
    45    24    25    1
    46    24    26    1
    47    25    48    1
    48    25    49    1
    49    25    50    1
    50    26    27    1
    51    27    28    2
    52    28    29    1
    53    29    51    1
    54    29    52    1
    55    29    53    1
    56    30    54    1
@<TRIPOS>SUBSTRUCTURE
     1 ZINC000558052810        1 TEMP              0 ****  ****    0 ROOT


##########                                Name:    ZINC001401207732
##########                DOCK_Rotatable_Bonds:                   8
##########                         Heavy_Atoms:                  23
##########                    Molecular_Weight:             337.446
##########                DOCK_Rotatable_Bonds:                   8
##########                       Formal_Charge:          -0.0199995
##########                     HBond_Acceptors:                   8
##########                        HBond_Donors:                   1
##########                         Heavy_Atoms:                  23
##########                          Grid_Score:          -29.101547
##########                     Grid_vdw_energy:          -28.752657
##########                      Grid_es_energy:           -0.348891
##########           Internal_energy_repulsive:          102.953018

@<TRIPOS>MOLECULE
ZINC001401207732
 46 47 1 0 0
SMALL
USER_CHARGES


@<TRIPOS>ATOM
      1 C1         -0.8139    3.1600   55.2832 C.3     1  ZINC001401207732   -0.0900
      2 C2         -2.0811    3.0826   54.4712 C.2     1  ZINC001401207732    0.1500
      3 C3         -2.0842    2.9520   53.1208 C.2     1  ZINC001401207732   -0.3000
      4 C4         -0.9014    2.8682   52.2573 C.2     1  ZINC001401207732    0.6100
      5 O5          0.2124    2.9103   52.7454 O.2     1  ZINC001401207732   -0.5200
      6 N6         -1.0484    2.7445   50.9233 N.am    1  ZINC001401207732   -0.5900
      7 C7         -2.3895    2.6938   50.3358 C.3     1  ZINC001401207732    0.0700
      8 C8          0.1328    2.6608   50.0609 C.3     1  ZINC001401207732    0.1400
      9 H9         -0.1798    2.4738   49.0336 H       1  ZINC001401207732    0.1100
     10 C10         0.9067    3.9791   50.1265 C.3     1  ZINC001401207732   -0.1600
     11 C11         1.0317    1.5176   50.5365 C.3     1  ZINC001401207732    0.0500
     12 N12         1.2105    0.5494   49.4463 N.3     1  ZINC001401207732   -0.6800
     13 C13         0.2090   -0.5225   49.5247 C.3     1  ZINC001401207732    0.1500
     14 C14        -0.5878   -0.5599   48.2462 C.2     1  ZINC001401207732    0.1800
     15 N15        -0.8207    0.4490   47.4415 N.2     1  ZINC001401207732   -0.4800
     16 C16        -1.5670   -0.0512   46.4406 C.2     1  ZINC001401207732    0.1800
     17 C17        -2.0980    0.7137   45.2557 C.3     1  ZINC001401207732   -0.0100
     18 C18        -2.7645    2.0035   45.7383 C.3     1  ZINC001401207732   -0.1500
     19 C19        -0.9437    1.0583   44.3123 C.3     1  ZINC001401207732   -0.1500
     20 N20        -1.7466   -1.3152   46.6832 N.2     1  ZINC001401207732   -0.3800
     21 O21        -1.1872   -1.6287   47.7129 O.3     1  ZINC001401207732    0.0900
     22 S22        -3.7637    2.9088   52.5895 S.3     1  ZINC001401207732    0.1800
     23 C23        -4.2898    3.0578   54.2092 C.2     1  ZINC001401207732    0.0100
     24 N24        -3.2742    3.1349   55.0080 N.2     1  ZINC001401207732   -0.4800
     25 H25        -0.5075    4.2016   55.3801 H       1  ZINC001401207732    0.0800
     26 H26        -0.9907    2.7397   56.2733 H       1  ZINC001401207732    0.0800
     27 H27        -0.0272    2.5947   54.7837 H       1  ZINC001401207732    0.1000
     28 H28        -2.7678    1.6724   50.3816 H       1  ZINC001401207732    0.0600
     29 H29        -3.0553    3.3532   50.8924 H       1  ZINC001401207732    0.0800
     30 H30        -2.3431    3.0176   49.2961 H       1  ZINC001401207732    0.0900
     31 H31         1.7855    3.9167   49.4847 H       1  ZINC001401207732    0.0700
     32 H32         0.2663    4.7935   49.7875 H       1  ZINC001401207732    0.0700
     33 H33         1.2194    4.1661   51.1537 H       1  ZINC001401207732    0.0600
     34 H34         0.5685    1.0224   51.3900 H       1  ZINC001401207732    0.0800
     35 H35         2.0022    1.9168   50.8308 H       1  ZINC001401207732    0.0500
     36 H36         2.1460    0.1711   49.4486 H       1  ZINC001401207732    0.3600
     37 H37        -0.4600   -0.3339   50.3644 H       1  ZINC001401207732    0.1100
     38 H38         0.7113   -1.4792   49.6680 H       1  ZINC001401207732    0.0800
     39 H39        -2.8294    0.1026   44.7268 H       1  ZINC001401207732    0.1000
     40 H40        -3.1485    2.5567   44.8812 H       1  ZINC001401207732    0.0700
     41 H41        -3.5868    1.7580   46.4103 H       1  ZINC001401207732    0.0600
     42 H42        -2.0331    2.6146   46.2671 H       1  ZINC001401207732    0.0600
     43 H43        -0.4688    0.1394   43.9685 H       1  ZINC001401207732    0.0600
     44 H44        -1.3277    1.6114   43.4553 H       1  ZINC001401207732    0.0700
     45 H45        -0.2123    1.6693   44.8411 H       1  ZINC001401207732    0.0600
     46 H46        -5.3232    3.0883   54.5214 H       1  ZINC001401207732    0.2000
@<TRIPOS>BOND
     1     1     2    1
     2     1    25    1
     3     1    26    1
     4     1    27    1
     5     2    24    1
     6     2     3    2
     7     3     4    1
     8     3    22    1
     9     4     5    2
    10     4     6   am
    11     6     7    1
    12     6     8    1
    13     7    28    1
    14     7    29    1
    15     7    30    1
    16     8     9    1
    17     8    10    1
    18     8    11    1
    19    10    31    1
    20    10    32    1
    21    10    33    1
    22    11    12    1
    23    11    34    1
    24    11    35    1
    25    12    13    1
    26    12    36    1
    27    13    14    1
    28    13    37    1
    29    13    38    1
    30    14    21    1
    31    14    15    2
    32    15    16    1
    33    16    17    1
    34    16    20    2
    35    17    18    1
    36    17    19    1
    37    17    39    1
    38    18    40    1
    39    18    41    1
    40    18    42    1
    41    19    43    1
    42    19    44    1
    43    19    45    1
    44    20    21    1
    45    22    23    1
    46    23    24    2
    47    23    46    1
@<TRIPOS>SUBSTRUCTURE
     1 ZINC001401207732        1 TEMP              0 ****  ****    0 ROOT


##########                                Name:    ZINC000347662449
##########                DOCK_Rotatable_Bonds:                   5
##########                         Heavy_Atoms:                  23
##########                    Molecular_Weight:              327.45
##########                DOCK_Rotatable_Bonds:                   5
##########                       Formal_Charge:                0.03
##########                     HBond_Acceptors:                   5
##########                        HBond_Donors:                   0
##########                         Heavy_Atoms:                  23
##########                          Grid_Score:          -29.097248
##########                     Grid_vdw_energy:          -27.804733
##########                      Grid_es_energy:           -1.292514
##########           Internal_energy_repulsive:            7.134199

@<TRIPOS>MOLECULE
ZINC000347662449
 44 46 1 0 0
SMALL
USER_CHARGES


@<TRIPOS>ATOM
      1 C1        -10.7468    0.0435   52.0476 C.2     1  ZINC000347662449   -0.1800
      2 C2         -9.8303   -0.7345   51.5271 C.2     1  ZINC000347662449   -0.1700
      3 C3         -8.3777   -0.5179   51.8646 C.3     1  ZINC000347662449    0.1600
      4 N4         -8.2624   -0.0485   53.2476 N.am    1  ZINC000347662449   -0.6200
      5 C5         -7.5987    1.1983   53.6462 C.3     1  ZINC000347662449    0.1100
      6 C6         -8.0939    1.4885   55.0804 C.3     1  ZINC000347662449   -0.1100
      7 C7         -8.4604    0.0718   55.5800 C.3     1  ZINC000347662449   -0.1200
      8 H8         -7.6218   -0.3726   56.1161 H       1  ZINC000347662449    0.1400
      9 S9         -9.9265    0.1335   56.6397 S.3     1  ZINC000347662449    0.0300
     10 C10        -9.2862   -0.6304   58.0927 C.2     1  ZINC000347662449    0.1900
     11 N11        -8.1643   -0.3137   58.6965 N.2     1  ZINC000347662449   -0.4500
     12 C12        -7.9978   -1.1043   59.7702 C.2     1  ZINC000347662449   -0.0100
     13 C13        -9.0448   -1.9436   59.8456 C.2     1  ZINC000347662449   -0.0400
     14 N14        -9.8744   -1.6476   58.7851 N.pl3   1  ZINC000347662449   -0.4000
     15 C15       -11.0874   -2.2775   58.4732 C.ar    1  ZINC000347662449    0.1100
     16 C16       -11.1384   -3.2252   57.4603 C.ar    1  ZINC000347662449   -0.1100
     17 C17       -12.3352   -3.8442   57.1551 C.ar    1  ZINC000347662449   -0.1000
     18 C18       -13.4812   -3.5206   57.8574 C.ar    1  ZINC000347662449   -0.0800
     19 C19       -14.7850   -4.1981   57.5224 C.3     1  ZINC000347662449   -0.1200
     20 C20       -13.4334   -2.5768   58.8671 C.ar    1  ZINC000347662449   -0.0700
     21 C21       -14.6849   -2.2269   59.6304 C.3     1  ZINC000347662449   -0.1200
     22 C22       -12.2389   -1.9588   59.1807 C.ar    1  ZINC000347662449   -0.1100
     23 C23        -8.7559   -0.7015   54.3137 C.2     1  ZINC000347662449    0.5300
     24 O24        -9.3457   -1.7602   54.2680 O.2     1  ZINC000347662449   -0.4900
     25 H25       -10.4612    0.8402   52.7186 H       1  ZINC000347662449    0.1000
     26 H26       -11.7874   -0.1090   51.8023 H       1  ZINC000347662449    0.1000
     27 H27       -10.1159   -1.5311   50.8561 H       1  ZINC000347662449    0.1100
     28 H28        -7.8348   -1.4565   51.7531 H       1  ZINC000347662449    0.0900
     29 H29        -7.9555    0.2281   51.1913 H       1  ZINC000347662449    0.0900
     30 H30        -6.5164    1.0683   53.6399 H       1  ZINC000347662449    0.0800
     31 H31        -7.8858    2.0092   52.9767 H       1  ZINC000347662449    0.0900
     32 H32        -7.2991    1.9225   55.6872 H       1  ZINC000347662449    0.1100
     33 H33        -8.9703    2.1363   55.0670 H       1  ZINC000347662449    0.0900
     34 H34        -7.1643   -1.0710   60.4561 H       1  ZINC000347662449    0.1800
     35 H35        -9.2070   -2.7031   60.5961 H       1  ZINC000347662449    0.1800
     36 H36       -10.2436   -3.4782   56.9111 H       1  ZINC000347662449    0.1300
     37 H37       -12.3755   -4.5814   56.3668 H       1  ZINC000347662449    0.1300
     38 H38       -14.8902   -5.1012   58.1237 H       1  ZINC000347662449    0.0800
     39 H39       -15.6118   -3.5208   57.7363 H       1  ZINC000347662449    0.0700
     40 H40       -14.7959   -4.4624   56.4650 H       1  ZINC000347662449    0.0700
     41 H41       -14.7778   -2.8825   60.4962 H       1  ZINC000347662449    0.0800
     42 H42       -14.6295   -1.1906   59.9637 H       1  ZINC000347662449    0.0700
     43 H43       -15.5527   -2.3545   58.9833 H       1  ZINC000347662449    0.0800
     44 H44       -12.2020   -1.2220   59.9694 H       1  ZINC000347662449    0.1300
@<TRIPOS>BOND
     1     1     2    2
     2     1    25    1
     3     1    26    1
     4     2     3    1
     5     2    27    1
     6     3     4    1
     7     3    28    1
     8     3    29    1
     9     4    23   am
    10     4     5    1
    11     5     6    1
    12     5    30    1
    13     5    31    1
    14     6     7    1
    15     6    32    1
    16     6    33    1
    17     7     8    1
    18     7     9    1
    19     7    23    1
    20     9    10    1
    21    10    14    1
    22    10    11    2
    23    11    12    1
    24    12    13    2
    25    12    34    1
    26    13    14    1
    27    13    35    1
    28    14    15    1
    29    15    22   ar
    30    15    16   ar
    31    16    17   ar
    32    16    36    1
    33    17    18   ar
    34    17    37    1
    35    18    19    1
    36    18    20   ar
    37    19    38    1
    38    19    39    1
    39    19    40    1
    40    20    21    1
    41    20    22   ar
    42    21    41    1
    43    21    42    1
    44    21    43    1
    45    22    44    1
    46    23    24    2
@<TRIPOS>SUBSTRUCTURE
     1 ZINC000347662449        1 TEMP              0 ****  ****    0 ROOT


##########                                Name:    ZINC001009984555
##########                DOCK_Rotatable_Bonds:                   7
##########                         Heavy_Atoms:                  23
##########                    Molecular_Weight:             338.446
##########                DOCK_Rotatable_Bonds:                   7
##########                       Formal_Charge:           0.0400002
##########                     HBond_Acceptors:                   6
##########                        HBond_Donors:                   1
##########                         Heavy_Atoms:                  23
##########                          Grid_Score:          -29.087761
##########                     Grid_vdw_energy:          -28.928007
##########                      Grid_es_energy:           -0.159754
##########           Internal_energy_repulsive:           15.015474

@<TRIPOS>MOLECULE
ZINC001009984555
 46 47 1 0 0
SMALL
USER_CHARGES


@<TRIPOS>ATOM
      1 C1        -14.1624   -3.3337   56.7773 C.3     1  ZINC001009984555   -0.1400
      2 S2        -13.0231   -2.9676   58.1406 S.3     1  ZINC001009984555   -0.1800
      3 C3        -11.4211   -3.5195   57.4929 C.3     1  ZINC001009984555   -0.1300
      4 C4        -10.3407   -3.2146   58.4984 C.2     1  ZINC001009984555    0.5500
      5 O5        -10.0305   -4.0454   59.3258 O.2     1  ZINC001009984555   -0.5100
      6 N6         -9.7192   -2.0189   58.4782 N.am    1  ZINC001009984555   -0.6100
      7 C7        -10.0014   -0.9198   57.5371 C.3     1  ZINC001009984555    0.1000
      8 C8         -9.5333    0.3612   58.2717 C.3     1  ZINC001009984555   -0.1100
      9 H9        -10.2878    0.7033   58.9800 H       1  ZINC001009984555    0.1000
     10 C10        -9.1798    1.4668   57.2749 C.3     1  ZINC001009984555    0.1300
     11 N11        -8.4838    0.8835   56.1252 N.am    1  ZINC001009984555   -0.7300
     12 C12        -8.7616    1.3155   54.8791 C.2     1  ZINC001009984555    0.5600
     13 O13        -9.5886    2.1900   54.7093 O.2     1  ZINC001009984555   -0.5200
     14 C14        -8.0606    0.7256   53.7187 C.ar    1  ZINC001009984555   -0.1200
     15 C15        -8.5247   -0.4607   53.1488 C.ar    1  ZINC001009984555   -0.0900
     16 C16        -7.8668   -1.0071   52.0660 C.ar    1  ZINC001009984555   -0.1000
     17 C17        -6.7487   -0.3825   51.5443 C.ar    1  ZINC001009984555   -0.1200
     18 C18        -6.2815    0.7959   52.1047 C.ar    1  ZINC001009984555    0.0900
     19 F19        -5.1886    1.4007   51.5901 F       1  ZINC001009984555   -0.1300
     20 C20        -6.9355    1.3560   53.1853 C.ar    1  ZINC001009984555   -0.0500
     21 C21        -6.4275    2.6374   53.7945 C.3     1  ZINC001009984555   -0.1200
     22 C22        -8.2674   -0.1483   59.0104 C.3     1  ZINC001009984555   -0.1200
     23 C23        -8.6521   -1.5923   59.3951 C.3     1  ZINC001009984555    0.1400
     24 H24        -7.7890   -2.2484   59.2822 H       1  ZINC001009984555    0.0800
     25 C25        -9.1488   -1.6307   60.8417 C.3     1  ZINC001009984555   -0.1700
     26 H26       -14.1424   -4.4024   56.5642 H       1  ZINC001009984555    0.0800
     27 H27       -15.1730   -3.0383   57.0591 H       1  ZINC001009984555    0.1100
     28 H28       -13.8564   -2.7804   55.8895 H       1  ZINC001009984555    0.0800
     29 H29       -11.4539   -4.5934   57.3092 H       1  ZINC001009984555    0.1100
     30 H30       -11.2070   -2.9976   56.5602 H       1  ZINC001009984555    0.1100
     31 H31        -9.4368   -1.0558   56.6146 H       1  ZINC001009984555    0.0800
     32 H32       -11.0692   -0.8666   57.3249 H       1  ZINC001009984555    0.0800
     33 H33       -10.0930    1.9566   56.9365 H       1  ZINC001009984555    0.0800
     34 H34        -8.5327    2.1986   57.7583 H       1  ZINC001009984555    0.0800
     35 H35        -7.8231    0.1864   56.2608 H       1  ZINC001009984555    0.4000
     36 H36        -9.3973   -0.9507   53.5550 H       1  ZINC001009984555    0.1300
     37 H37        -8.2259   -1.9253   51.6248 H       1  ZINC001009984555    0.1400
     38 H38        -6.2371   -0.8150   50.6971 H       1  ZINC001009984555    0.1400
     39 H39        -6.9874    3.4797   53.3883 H       1  ZINC001009984555    0.0800
     40 H40        -6.5578    2.6022   54.8761 H       1  ZINC001009984555    0.1000
     41 H41        -5.3698    2.7570   53.5597 H       1  ZINC001009984555    0.0600
     42 H42        -7.4034   -0.1394   58.3459 H       1  ZINC001009984555    0.0900
     43 H43        -8.0753    0.4480   59.9024 H       1  ZINC001009984555    0.0900
     44 H44       -10.0224   -0.9866   60.9430 H       1  ZINC001009984555    0.0600
     45 H45        -9.4184   -2.6530   61.1062 H       1  ZINC001009984555    0.0700
     46 H46        -8.3595   -1.2795   61.5063 H       1  ZINC001009984555    0.0700
@<TRIPOS>BOND
     1     1     2    1
     2     1    26    1
     3     1    27    1
     4     1    28    1
     5     2     3    1
     6     3     4    1
     7     3    29    1
     8     3    30    1
     9     4     5    2
    10     4     6   am
    11     6    23    1
    12     6     7    1
    13     7     8    1
    14     7    31    1
    15     7    32    1
    16     8     9    1
    17     8    10    1
    18     8    22    1
    19    10    11    1
    20    10    33    1
    21    10    34    1
    22    11    12   am
    23    11    35    1
    24    12    13    2
    25    12    14    1
    26    14    20   ar
    27    14    15   ar
    28    15    16   ar
    29    15    36    1
    30    16    17   ar
    31    16    37    1
    32    17    18   ar
    33    17    38    1
    34    18    19    1
    35    18    20   ar
    36    20    21    1
    37    21    39    1
    38    21    40    1
    39    21    41    1
    40    22    23    1
    41    22    42    1
    42    22    43    1
    43    23    24    1
    44    23    25    1
    45    25    44    1
    46    25    45    1
    47    25    46    1
@<TRIPOS>SUBSTRUCTURE
     1 ZINC001009984555        1 TEMP              0 ****  ****    0 ROOT


##########                                Name:    ZINC000328606936
##########                DOCK_Rotatable_Bonds:                   6
##########                         Heavy_Atoms:                  23
##########                    Molecular_Weight:             338.428
##########                DOCK_Rotatable_Bonds:                   6
##########                       Formal_Charge:           0.0100001
##########                     HBond_Acceptors:                   7
##########                        HBond_Donors:                   2
##########                         Heavy_Atoms:                  23
##########                          Grid_Score:          -29.047848
##########                     Grid_vdw_energy:          -26.966917
##########                      Grid_es_energy:           -2.080930
##########           Internal_energy_repulsive:           12.297876

@<TRIPOS>MOLECULE
ZINC000328606936
 45 47 1 0 0
SMALL
USER_CHARGES


@<TRIPOS>ATOM
      1 C1         -7.9153    2.7262   53.8560 C.3     1  <0>        -0.0500
      2 N2         -7.7461    1.4798   53.0973 N.4     1  <0>        -0.3500
      3 H3         -8.1820    1.5750   52.1923 H       1  <0>         0.4200
      4 C4         -8.3745    0.3719   53.8292 C.3     1  <0>        -0.0900
      5 C5         -9.0224   -0.5733   52.8504 C.2     1  <0>         0.4900
      6 O6         -9.4455   -0.1537   51.7867 O.co2   1  <0>        -0.6700
      7 O7         -9.1233   -1.7575   53.1222 O.co2   1  <0>        -0.6400
      8 C8         -6.3139    1.2024   52.9242 C.3     1  <0>         0.0100
      9 H9         -5.8805    0.8527   53.8612 H       1  <0>         0.1600
     10 C10        -5.5781    2.4670   52.4315 C.3     1  <0>         0.1000
     11 N11        -4.5602    1.9610   51.4814 N.am    1  <0>        -0.6200
     12 C12        -3.2905    2.3854   51.3264 C.2     1  <0>         0.6200
     13 O13        -2.8628    3.2908   52.0181 O.2     1  <0>        -0.5100
     14 C14        -2.4247    1.7566   50.3246 C.2     1  <0>        -0.2800
     15 C15        -2.8130    1.3624   49.0810 C.2     1  <0>        -0.0300
     16 C16        -1.8023    0.7945   48.3274 C.2     1  <0>        -0.1200
     17 C17        -0.6108    0.7344   48.9643 C.2     1  <0>        -0.1900
     18 C18         0.6554    0.1588   48.3583 C.3     1  <0>        -0.0500
     19 C19         0.2774   -0.6862   47.1390 C.3     1  <0>        -0.1200
     20 C20        -0.6467    0.1323   46.2325 C.3     1  <0>        -0.1200
     21 C21        -2.0110    0.2820   46.9081 C.3     1  <0>        -0.0600
     22 S22        -0.7184    1.3982   50.5338 S.3     1  <0>         0.2000
     23 C23        -5.2548    0.8825   50.7402 C.3     1  <0>         0.0600
     24 C24        -6.1010    0.1555   51.8111 C.3     1  <0>         0.0800
     25 H25        -7.0591   -0.1520   51.3922 H       1  <0>         0.1000
     26 O26        -5.3940   -0.9785   52.3173 O.3     1  <0>        -0.5400
     27 H27        -7.4445    2.6233   54.8336 H       1  <0>         0.1100
     28 H28        -7.4490    3.5483   53.3128 H       1  <0>         0.1100
     29 H29        -8.9780    2.9320   53.9843 H       1  <0>         0.1600
     30 H30        -7.6160   -0.1618   54.4018 H       1  <0>         0.1200
     31 H31        -9.1307    0.7671   54.5075 H       1  <0>         0.1300
     32 H32        -6.2719    3.1371   51.9239 H       1  <0>         0.1000
     33 H33        -5.0980    2.9771   53.2667 H       1  <0>         0.1200
     34 H34        -3.8221    1.4822   48.7152 H       1  <0>         0.1500
     35 H35         1.3149    0.9702   48.0505 H       1  <0>         0.0900
     36 H36         1.1609   -0.4668   49.0939 H       1  <0>         0.0800
     37 H37         1.1789   -0.9585   46.5902 H       1  <0>         0.0700
     38 H38        -0.2387   -1.5886   47.4664 H       1  <0>         0.0700
     39 H39        -0.2127    1.1180   46.0649 H       1  <0>         0.0700
     40 H40        -0.7675   -0.3801   45.2781 H       1  <0>         0.0700
     41 H41        -2.5119   -0.6857   46.9383 H       1  <0>         0.0800
     42 H42        -2.6193    0.9932   46.3494 H       1  <0>         0.0800
     43 H43        -5.8982    1.3051   49.9686 H       1  <0>         0.1000
     44 H44        -4.5309    0.1971   50.2994 H       1  <0>         0.1000
     45 H45        -4.5039   -0.7765   52.6368 H       1  <0>         0.4000
@<TRIPOS>BOND
     1     1     2    1
     2     1    27    1
     3     1    28    1
     4     1    29    1
     5     2     3    1
     6     2     4    1
     7     2     8    1
     8     4     5    1
     9     4    30    1
    10     4    31    1
    11     5     6   ar
    12     5     7   ar
    13     8     9    1
    14     8    24    1
    15     8    10    1
    16    10    11    1
    17    10    32    1
    18    10    33    1
    19    11    12   am
    20    11    23    1
    21    12    13    2
    22    12    14    1
    23    14    22    1
    24    14    15    2
    25    15    16    1
    26    15    34    1
    27    16    21    1
    28    16    17    2
    29    17    18    1
    30    17    22    1
    31    18    19    1
    32    18    35    1
    33    18    36    1
    34    19    20    1
    35    19    37    1
    36    19    38    1
    37    20    21    1
    38    20    39    1
    39    20    40    1
    40    21    41    1
    41    21    42    1
    42    23    24    1
    43    23    43    1
    44    23    44    1
    45    24    25    1
    46    24    26    1
    47    26    45    1
@<TRIPOS>SUBSTRUCTURE
     1 <0>         1 TEMP              0 ****  ****    0 ROOT


##########                                Name:    ZINC000866717058
##########                DOCK_Rotatable_Bonds:                   7
##########                         Heavy_Atoms:                  25
##########                    Molecular_Weight:             380.388
##########                DOCK_Rotatable_Bonds:                   7
##########                       Formal_Charge:                0.04
##########                     HBond_Acceptors:                  10
##########                        HBond_Donors:                   1
##########                         Heavy_Atoms:                  25
##########                          Grid_Score:          -29.030560
##########                     Grid_vdw_energy:          -28.385603
##########                      Grid_es_energy:           -0.644956
##########           Internal_energy_repulsive:           10.461104

@<TRIPOS>MOLECULE
ZINC000866717058
 44 45 1 0 0
SMALL
USER_CHARGES


@<TRIPOS>ATOM
      1 C1         -8.2545    1.0927   57.2709 C.3     1  ZINC000866717058   -0.1100
      2 C2         -8.6496    0.0605   58.2953 C.ar    1  ZINC000866717058    0.2400
      3 N3         -8.1789    0.1458   59.5217 N.ar    1  ZINC000866717058   -0.5500
      4 C4         -8.4985   -0.7380   60.4549 C.ar    1  ZINC000866717058    0.3500
      5 O5         -7.9876   -0.6057   61.7029 O.3     1  ZINC000866717058   -0.2800
      6 C6         -8.9147   -0.3485   62.7594 C.3     1  ZINC000866717058    0.0500
      7 H7         -9.7570   -1.0357   62.6792 H       1  ZINC000866717058    0.1300
      8 C8         -8.2198   -0.5486   64.1078 C.3     1  ZINC000866717058   -0.1700
      9 C9         -9.4201    1.0918   62.6550 C.3     1  ZINC000866717058    0.4600
     10 F10        -9.9115    1.5049   63.8980 F       1  ZINC000866717058   -0.1700
     11 F11        -8.3677    1.9285   62.2681 F       1  ZINC000866717058   -0.1700
     12 F12       -10.4434    1.1592   61.7033 F       1  ZINC000866717058   -0.1700
     13 C13        -9.3516   -1.8001   60.1723 C.ar    1  ZINC000866717058   -0.1900
     14 C14        -9.8692   -1.9295   58.8997 C.ar    1  ZINC000866717058    0.0000
     15 C15        -9.5154   -0.9735   57.9364 C.ar    1  ZINC000866717058   -0.2300
     16 C16       -10.0421   -1.0660   56.5605 C.2     1  ZINC000866717058    0.5800
     17 O17       -11.0886   -0.5182   56.2720 O.2     1  ZINC000866717058   -0.5200
     18 N18        -9.3631   -1.7578   55.6240 N.am    1  ZINC000866717058   -0.7400
     19 C19        -9.8867   -1.8510   54.2590 C.3     1  ZINC000866717058    0.1400
     20 C20        -9.3856   -0.6609   53.4383 C.3     1  ZINC000866717058   -0.5700
     21 H21        -9.6345    0.2791   53.9308 H       1  ZINC000866717058    0.1500
     22 C22        -7.8582   -0.7659   53.1929 C.3     1  ZINC000866717058   -0.1100
     23 C23        -7.5405    0.1495   51.9975 C.3     1  ZINC000866717058   -0.1200
     24 C24        -8.5616   -0.1289   50.8766 C.3     1  ZINC000866717058   -0.5900
     25 S25       -10.0720   -0.7070   51.7395 S.o2    1  ZINC000866717058    2.3700
     26 O26       -10.3340   -2.0559   51.3775 O.2     1  ZINC000866717058   -0.9200
     27 O27       -11.0924    0.2735   51.6108 O.2     1  ZINC000866717058   -0.9300
     28 H28        -9.0270    1.8594   57.2110 H       1  ZINC000866717058    0.0900
     29 H29        -7.3095    1.5509   57.5625 H       1  ZINC000866717058    0.0700
     30 H30        -8.1414    0.6143   56.2980 H       1  ZINC000866717058    0.1100
     31 H31        -8.9270   -0.3524   64.9137 H       1  ZINC000866717058    0.0900
     32 H32        -7.8598   -1.5746   64.1822 H       1  ZINC000866717058    0.0900
     33 H33        -7.3777    0.1387   64.1880 H       1  ZINC000866717058    0.0800
     34 H34        -9.6057   -2.5156   60.9404 H       1  ZINC000866717058    0.1600
     35 H35       -10.5334   -2.7444   58.6526 H       1  ZINC000866717058    0.1500
     36 H36        -8.5276   -2.1938   55.8539 H       1  ZINC000866717058    0.4000
     37 H37        -9.5436   -2.7786   53.8008 H       1  ZINC000866717058    0.1000
     38 H38       -10.9763   -1.8405   54.2862 H       1  ZINC000866717058    0.1000
     39 H39        -7.3143   -0.4295   54.0756 H       1  ZINC000866717058    0.1100
     40 H40        -7.5879   -1.7951   52.9571 H       1  ZINC000866717058    0.0900
     41 H41        -7.6103    1.1926   52.3060 H       1  ZINC000866717058    0.0900
     42 H42        -6.5334   -0.0569   51.6353 H       1  ZINC000866717058    0.1000
     43 H43        -8.7725    0.7850   50.3210 H       1  ZINC000866717058    0.1400
     44 H44        -8.1865   -0.9022   50.2063 H       1  ZINC000866717058    0.1400
@<TRIPOS>BOND
     1     1     2    1
     2     1    28    1
     3     1    29    1
     4     1    30    1
     5     2    15   ar
     6     2     3   ar
     7     3     4   ar
     8     4     5    1
     9     4    13   ar
    10     5     6    1
    11     6     7    1
    12     6     8    1
    13     6     9    1
    14     8    31    1
    15     8    32    1
    16     8    33    1
    17     9    10    1
    18     9    11    1
    19     9    12    1
    20    13    14   ar
    21    13    34    1
    22    14    15   ar
    23    14    35    1
    24    15    16    1
    25    16    17    2
    26    16    18   am
    27    18    19    1
    28    18    36    1
    29    19    20    1
    30    19    37    1
    31    19    38    1
    32    20    21    1
    33    20    25    1
    34    20    22    1
    35    22    23    1
    36    22    39    1
    37    22    40    1
    38    23    24    1
    39    23    41    1
    40    23    42    1
    41    24    25    1
    42    24    43    1
    43    24    44    1
    44    25    26    2
    45    25    27    2
@<TRIPOS>SUBSTRUCTURE
     1 ZINC000866717058        1 TEMP              0 ****  ****    0 ROOT


##########                                Name:    ZINC000817655807
##########                DOCK_Rotatable_Bonds:                   3
##########                         Heavy_Atoms:                  24
##########                    Molecular_Weight:             352.774
##########                DOCK_Rotatable_Bonds:                   3
##########                       Formal_Charge:         3.35276e-07
##########                     HBond_Acceptors:                   8
##########                        HBond_Donors:                   0
##########                         Heavy_Atoms:                  24
##########                          Grid_Score:          -29.016747
##########                     Grid_vdw_energy:          -28.339230
##########                      Grid_es_energy:           -0.677518
##########           Internal_energy_repulsive:            2.457352

@<TRIPOS>MOLECULE
ZINC000817655807
 41 44 1 0 0
SMALL
USER_CHARGES


@<TRIPOS>ATOM
      1 C1         -5.9080    0.0554   51.7558 C.3     1  ZINC000817655807    0.1100
      2 N2         -7.2733   -0.2743   52.1727 N.am    1  ZINC000817655807   -0.6400
      3 C3         -7.8391   -0.0453   53.5143 C.3     1  ZINC000817655807    0.1000
      4 C4         -9.2728   -0.5677   53.3853 C.3     1  ZINC000817655807    0.0500
      5 C5         -9.7262   -1.5412   54.4734 C.3     1  ZINC000817655807    0.1200
      6 N6        -10.2796   -0.3519   55.1541 N.am    1  ZINC000817655807   -0.6500
      7 C7        -10.5801   -0.0522   56.4333 C.2     1  ZINC000817655807    0.5500
      8 O8        -11.0377    1.0365   56.7096 O.2     1  ZINC000817655807   -0.5100
      9 C9        -10.3477   -1.0698   57.5202 C.3     1  ZINC000817655807   -0.0900
     10 C10       -11.6482   -1.7539   57.8544 C.ar    1  ZINC000817655807   -0.0600
     11 C11       -11.9921   -2.9311   57.2170 C.ar    1  ZINC000817655807   -0.0900
     12 C12       -13.1862   -3.5606   57.5197 C.ar    1  ZINC000817655807   -0.0300
     13 Cl13      -13.6152   -5.0388   56.7168 Cl      1  ZINC000817655807   -0.0500
     14 C14       -14.0410   -3.0116   58.4648 C.ar    1  ZINC000817655807    0.0600
     15 O15       -15.2163   -3.6379   58.7467 O.3     1  ZINC000817655807   -0.2900
     16 C16       -15.8716   -3.2597   59.9623 C.3     1  ZINC000817655807    0.0200
     17 C17       -15.8728   -1.7276   60.0511 C.3     1  ZINC000817655807    0.0200
     18 O18       -14.5139   -1.2769   60.0417 O.3     1  ZINC000817655807   -0.3000
     19 C19       -13.6925   -1.8300   59.1079 C.ar    1  ZINC000817655807    0.0600
     20 C20       -12.4923   -1.2059   58.8020 C.ar    1  ZINC000817655807   -0.0900
     21 C21       -10.3712    0.3778   53.8722 C.3     1  ZINC000817655807    0.1100
     22 O22        -9.3839   -1.0324   52.0202 O.3     1  ZINC000817655807   -0.3000
     23 C23        -8.2149   -0.8288   51.3943 C.2     1  ZINC000817655807    0.6400
     24 O24        -8.0242   -1.1261   50.2316 O.2     1  ZINC000817655807   -0.5100
     25 H25        -5.7710   -0.2199   50.7100 H       1  ZINC000817655807    0.0900
     26 H26        -5.7404    1.1259   51.8745 H       1  ZINC000817655807    0.0700
     27 H27        -5.1970   -0.4943   52.3725 H       1  ZINC000817655807    0.0700
     28 H28        -7.2893   -0.6124   54.2655 H       1  ZINC000817655807    0.1000
     29 H29        -7.8375    1.0176   53.7560 H       1  ZINC000817655807    0.1000
     30 H30       -10.4841   -2.2508   54.1412 H       1  ZINC000817655807    0.1100
     31 H31        -8.9046   -2.0140   55.0114 H       1  ZINC000817655807    0.1000
     32 H32        -9.6255   -1.8102   57.1764 H       1  ZINC000817655807    0.1100
     33 H33        -9.9611   -0.5705   58.4087 H       1  ZINC000817655807    0.1100
     34 H34       -11.3279   -3.3599   56.4814 H       1  ZINC000817655807    0.1400
     35 H35       -16.8973   -3.6283   59.9569 H       1  ZINC000817655807    0.1300
     36 H36       -15.3349   -3.6768   60.8144 H       1  ZINC000817655807    0.0800
     37 H37       -16.4044   -1.3102   59.1959 H       1  ZINC000817655807    0.0800
     38 H38       -16.3579   -1.4133   60.9752 H       1  ZINC000817655807    0.1300
     39 H39       -12.2186   -0.2886   59.3020 H       1  ZINC000817655807    0.1400
     40 H40       -10.0586    1.4201   53.9356 H       1  ZINC000817655807    0.1000
     41 H41       -11.3237    0.2476   53.3586 H       1  ZINC000817655807    0.1100
@<TRIPOS>BOND
     1     1     2    1
     2     1    25    1
     3     1    26    1
     4     1    27    1
     5     2    23   am
     6     2     3    1
     7     3     4    1
     8     3    28    1
     9     3    29    1
    10     4    21    1
    11     4     5    1
    12     4    22    1
    13     5     6    1
    14     5    30    1
    15     5    31    1
    16     6     7   am
    17     6    21    1
    18     7     8    2
    19     7     9    1
    20     9    10    1
    21     9    32    1
    22     9    33    1
    23    10    20   ar
    24    10    11   ar
    25    11    12   ar
    26    11    34    1
    27    12    13    1
    28    12    14   ar
    29    14    19   ar
    30    14    15    1
    31    15    16    1
    32    16    17    1
    33    16    35    1
    34    16    36    1
    35    17    18    1
    36    17    37    1
    37    17    38    1
    38    18    19    1
    39    19    20   ar
    40    20    39    1
    41    21    40    1
    42    21    41    1
    43    22    23    1
    44    23    24    2
@<TRIPOS>SUBSTRUCTURE
     1 ZINC000817655807        1 TEMP              0 ****  ****    0 ROOT


##########                                Name:    ZINC000774689801
##########                DOCK_Rotatable_Bonds:                   4
##########                         Heavy_Atoms:                  24
##########                    Molecular_Weight:             347.395
##########                DOCK_Rotatable_Bonds:                   4
##########                       Formal_Charge:         -0.00999961
##########                     HBond_Acceptors:                   8
##########                        HBond_Donors:                   1
##########                         Heavy_Atoms:                  24
##########                          Grid_Score:          -29.011852
##########                     Grid_vdw_energy:          -28.302944
##########                      Grid_es_energy:           -0.708908
##########           Internal_energy_repulsive:            5.862722

@<TRIPOS>MOLECULE
ZINC000774689801
 41 44 1 0 0
SMALL
USER_CHARGES


@<TRIPOS>ATOM
      1 C1        -10.6940   -2.6476   57.1406 C.3     1  ZINC000774689801   -0.1200
      2 C2         -9.8831   -1.3776   57.1163 C.2     1  ZINC000774689801    0.0600
      3 C3         -9.7428   -0.5963   58.1993 C.2     1  ZINC000774689801   -0.2800
      4 C4        -10.3415   -0.8680   59.5078 C.2     1  ZINC000774689801    0.5500
      5 O5        -11.4236   -0.3912   59.7923 O.2     1  ZINC000774689801   -0.4900
      6 O6         -9.6928   -1.6472   60.3977 O.3     1  ZINC000774689801   -0.3400
      7 C7         -9.7323   -1.2326   61.7887 C.3     1  ZINC000774689801    0.0900
      8 C8         -8.5858   -0.2572   62.0628 C.3     1  ZINC000774689801   -0.1300
      9 H9         -7.7001   -0.5415   61.4946 H       1  ZINC000774689801    0.1200
     10 C10        -9.0104    1.1885   61.7156 C.3     1  ZINC000774689801   -0.1300
     11 C11        -8.2985    1.9999   62.8207 C.3     1  ZINC000774689801    0.1000
     12 N12        -8.1249    1.0676   63.9408 N.am    1  ZINC000774689801   -0.7400
     13 C13        -8.2730   -0.2101   63.5423 C.2     1  ZINC000774689801    0.5200
     14 O14        -8.1739   -1.1791   64.2648 O.2     1  ZINC000774689801   -0.5100
     15 S15        -8.7408    0.7961   57.8272 S.3     1  ZINC000774689801    0.3000
     16 C16        -8.5344    0.2637   56.1628 C.2     1  ZINC000774689801    0.1000
     17 C17        -9.2237   -0.9380   55.9700 C.2     1  ZINC000774689801   -0.2500
     18 C18        -9.1599   -1.5349   54.6223 C.2     1  ZINC000774689801    0.5700
     19 O19        -9.7356   -2.5800   54.3772 O.2     1  ZINC000774689801   -0.5000
     20 N20        -8.4483   -0.8965   53.6639 N.am    1  ZINC000774689801   -0.5500
     21 C21        -8.2317   -1.2887   52.2606 C.3     1  ZINC000774689801    0.0900
     22 C22        -7.7450   -0.0125   51.5436 C.3     1  ZINC000774689801   -0.1300
     23 C23        -7.0991    0.7748   52.7041 C.3     1  ZINC000774689801   -0.0800
     24 C24        -7.8136    0.2693   53.9464 C.2     1  ZINC000774689801    0.4200
     25 N25        -7.8570    0.8067   55.1365 N.2     1  ZINC000774689801   -0.5100
     26 H26       -10.0533   -3.4824   57.4247 H       1  ZINC000774689801    0.0800
     27 H27       -11.5034   -2.5482   57.8639 H       1  ZINC000774689801    0.1000
     28 H28       -11.1118   -2.8309   56.1506 H       1  ZINC000774689801    0.0800
     29 H29       -10.6836   -0.7422   61.9948 H       1  ZINC000774689801    0.0900
     30 H30        -9.6272   -2.1066   62.4315 H       1  ZINC000774689801    0.0800
     31 H31        -8.6494    1.4745   60.7278 H       1  ZINC000774689801    0.1000
     32 H32       -10.0922    1.3040   61.7825 H       1  ZINC000774689801    0.0900
     33 H33        -7.3285    2.3490   62.4668 H       1  ZINC000774689801    0.0800
     34 H34        -8.9160    2.8448   63.1255 H       1  ZINC000774689801    0.0800
     35 H35        -7.9270    1.3369   64.8514 H       1  ZINC000774689801    0.4100
     36 H36        -7.4719   -2.0679   52.2001 H       1  ZINC000774689801    0.1000
     37 H37        -9.1652   -1.6366   51.8182 H       1  ZINC000774689801    0.1000
     38 H38        -7.0077   -0.2528   50.7775 H       1  ZINC000774689801    0.1100
     39 H39        -8.5830    0.5388   51.1171 H       1  ZINC000774689801    0.0900
     40 H40        -6.0324    0.5589   52.7638 H       1  ZINC000774689801    0.1200
     41 H41        -7.2656    1.8446   52.5777 H       1  ZINC000774689801    0.1200
@<TRIPOS>BOND
     1     1     2    1
     2     1    26    1
     3     1    27    1
     4     1    28    1
     5     2    17    1
     6     2     3    2
     7     3     4    1
     8     3    15    1
     9     4     5    2
    10     4     6    1
    11     6     7    1
    12     7     8    1
    13     7    29    1
    14     7    30    1
    15     8     9    1
    16     8    13    1
    17     8    10    1
    18    10    11    1
    19    10    31    1
    20    10    32    1
    21    11    12    1
    22    11    33    1
    23    11    34    1
    24    12    13   am
    25    12    35    1
    26    13    14    2
    27    15    16    1
    28    16    25    1
    29    16    17    2
    30    17    18    1
    31    18    19    2
    32    18    20   am
    33    20    24    1
    34    20    21    1
    35    21    22    1
    36    21    36    1
    37    21    37    1
    38    22    23    1
    39    22    38    1
    40    22    39    1
    41    23    24    1
    42    23    40    1
    43    23    41    1
    44    24    25    2
@<TRIPOS>SUBSTRUCTURE
     1 ZINC000774689801        1 TEMP              0 ****  ****    0 ROOT


##########                                Name:    ZINC000587344575
##########                DOCK_Rotatable_Bonds:                   7
##########                         Heavy_Atoms:                  30
##########                    Molecular_Weight:             408.475
##########                DOCK_Rotatable_Bonds:                   7
##########                       Formal_Charge:          -0.0100002
##########                     HBond_Acceptors:                   7
##########                        HBond_Donors:                   2
##########                         Heavy_Atoms:                  30
##########                          Grid_Score:          -28.970266
##########                     Grid_vdw_energy:          -27.898474
##########                      Grid_es_energy:           -1.071792
##########           Internal_energy_repulsive:           15.136576

@<TRIPOS>MOLECULE
ZINC000587344575
 55 57 1 0 0
SMALL
USER_CHARGES


@<TRIPOS>ATOM
      1 C1        -10.0070    0.0181   52.0573 C.3     1  ZINC000587344575   -0.1200
      2 C2        -10.9413   -0.4537   53.1415 C.ar    1  ZINC000587344575    0.0000
      3 C3        -10.4336   -0.9683   54.3128 C.ar    1  ZINC000587344575   -0.1600
      4 C4        -11.2955   -1.4037   55.3146 C.ar    1  ZINC000587344575    0.1800
      5 N5        -10.7778   -1.9241   56.5002 N.am    1  ZINC000587344575   -0.6700
      6 C6        -10.2832   -1.0952   57.4407 C.2     1  ZINC000587344575    0.5200
      7 O7        -10.2884    0.1034   57.2559 O.2     1  ZINC000587344575   -0.5000
      8 C8         -9.7237   -1.6576   58.7220 C.3     1  ZINC000587344575   -0.1200
      9 H9         -8.7940   -2.1917   58.5258 H       1  ZINC000587344575    0.1100
     10 C10       -10.7527   -2.5989   59.3892 C.3     1  ZINC000587344575   -0.1200
     11 C11       -10.5934   -2.2742   60.8958 C.3     1  ZINC000587344575    0.0400
     12 N12       -10.3621   -0.8071   60.9047 N.3     1  ZINC000587344575   -0.4800
     13 C13        -9.7559   -0.4043   62.0928 C.ar    1  ZINC000587344575    0.0700
     14 C14        -8.4776   -0.8534   62.4064 C.ar    1  ZINC000587344575   -0.1200
     15 C15        -7.8752   -0.4579   63.5802 C.ar    1  ZINC000587344575   -0.0700
     16 C16        -8.5490    0.3964   64.4572 C.ar    1  ZINC000587344575    0.0000
     17 C17        -7.9245    0.8094   65.6779 C.1     1  ZINC000587344575    0.2500
     18 N18        -7.4292    1.1371   66.6463 N.1     1  ZINC000587344575   -0.4000
     19 C19        -9.8343    0.8475   64.1400 C.ar    1  ZINC000587344575   -0.1000
     20 C20       -10.4295    0.4523   62.9617 C.ar    1  ZINC000587344575    0.1300
     21 F21       -11.6707    0.8874   62.6533 F       1  ZINC000587344575   -0.1200
     22 C22        -9.4867   -0.5291   59.7425 C.3     1  ZINC000587344575    0.0500
     23 C23       -12.6727   -1.3204   55.1363 C.ar    1  ZINC000587344575   -0.1400
     24 C24       -13.1872   -0.8066   53.9671 C.ar    1  ZINC000587344575   -0.0600
     25 C25       -12.3243   -0.3636   52.9612 C.ar    1  ZINC000587344575   -0.1600
     26 C26       -12.8724    0.1882   51.7067 C.2     1  ZINC000587344575    0.5600
     27 O27       -13.4210   -0.5463   50.9081 O.2     1  ZINC000587344575   -0.5300
     28 N28       -12.7647    1.5062   51.4466 N.am    1  ZINC000587344575   -0.7200
     29 C29       -13.3071    2.0535   50.2006 C.3     1  ZINC000587344575    0.1400
     30 C30       -14.7446    2.5229   50.4329 C.3     1  ZINC000587344575   -0.1600
     31 C31       -12.4506    3.2381   49.7484 C.3     1  ZINC000587344575   -0.1600
     32 H32        -9.8707    1.0964   52.1388 H       1  ZINC000587344575    0.0800
     33 H33        -9.0432   -0.4791   52.1665 H       1  ZINC000587344575    0.0600
     34 H34       -10.4312   -0.2219   51.0823 H       1  ZINC000587344575    0.1000
     35 H35        -9.3649   -1.0347   54.4543 H       1  ZINC000587344575    0.1300
     36 H36       -10.7736   -2.8828   56.6479 H       1  ZINC000587344575    0.4100
     37 H37       -11.7627   -2.3690   59.0498 H       1  ZINC000587344575    0.0900
     38 H38       -10.5063   -3.6420   59.1912 H       1  ZINC000587344575    0.0900
     39 H39       -11.5034   -2.5236   61.4414 H       1  ZINC000587344575    0.0900
     40 H40        -9.7360   -2.8014   61.3143 H       1  ZINC000587344575    0.0600
     41 H41        -7.9567   -1.5137   61.7288 H       1  ZINC000587344575    0.1400
     42 H42        -6.8827   -0.8081   63.8227 H       1  ZINC000587344575    0.1400
     43 H43       -10.3577    1.5078   64.8155 H       1  ZINC000587344575    0.1500
     44 H44        -8.4430   -0.5229   60.0569 H       1  ZINC000587344575    0.0600
     45 H45        -9.7499    0.4320   59.3009 H       1  ZINC000587344575    0.1100
     46 H46       -13.3390   -1.6596   55.9157 H       1  ZINC000587344575    0.1400
     47 H47       -14.2565   -0.7423   53.8293 H       1  ZINC000587344575    0.1300
     48 H48       -12.3280    2.0923   52.0842 H       1  ZINC000587344575    0.4000
     49 H49       -13.2966    1.2826   49.4301 H       1  ZINC000587344575    0.0900
     50 H50       -14.7550    3.2939   51.2034 H       1  ZINC000587344575    0.0600
     51 H51       -15.1481    2.9302   49.5059 H       1  ZINC000587344575    0.0700
     52 H52       -15.3548    1.6791   50.7550 H       1  ZINC000587344575    0.0600
     53 H53       -12.4610    4.0091   50.5189 H       1  ZINC000587344575    0.0600
     54 H54       -11.4265    2.9037   49.5830 H       1  ZINC000587344575    0.0600
     55 H55       -12.8541    3.6453   48.8214 H       1  ZINC000587344575    0.0700
@<TRIPOS>BOND
     1     1     2    1
     2     1    32    1
     3     1    33    1
     4     1    34    1
     5     2    25   ar
     6     2     3   ar
     7     3     4   ar
     8     3    35    1
     9     4     5    1
    10     4    23   ar
    11     5     6   am
    12     5    36    1
    13     6     7    2
    14     6     8    1
    15     8     9    1
    16     8    22    1
    17     8    10    1
    18    10    11    1
    19    10    37    1
    20    10    38    1
    21    11    12    1
    22    11    39    1
    23    11    40    1
    24    12    13    1
    25    12    22    1
    26    13    20   ar
    27    13    14   ar
    28    14    15   ar
    29    14    41    1
    30    15    16   ar
    31    15    42    1
    32    16    17    1
    33    16    19   ar
    34    17    18    3
    35    19    20   ar
    36    19    43    1
    37    20    21    1
    38    22    44    1
    39    22    45    1
    40    23    24   ar
    41    23    46    1
    42    24    25   ar
    43    24    47    1
    44    25    26    1
    45    26    27    2
    46    26    28   am
    47    28    29    1
    48    28    48    1
    49    29    30    1
    50    29    31    1
    51    29    49    1
    52    30    50    1
    53    30    51    1
    54    30    52    1
    55    31    53    1
    56    31    54    1
    57    31    55    1
@<TRIPOS>SUBSTRUCTURE
     1 ZINC000587344575        1 TEMP              0 ****  ****    0 ROOT


##########                                Name:    ZINC000820901229
##########                DOCK_Rotatable_Bonds:                   3
##########                         Heavy_Atoms:                  18
##########                    Molecular_Weight:             331.233
##########                DOCK_Rotatable_Bonds:                   3
##########                       Formal_Charge:           0.0099999
##########                     HBond_Acceptors:                   5
##########                        HBond_Donors:                   1
##########                         Heavy_Atoms:                  18
##########                          Grid_Score:          -28.948990
##########                     Grid_vdw_energy:          -28.536139
##########                      Grid_es_energy:           -0.412851
##########           Internal_energy_repulsive:            2.551081

@<TRIPOS>MOLECULE
ZINC000820901229
 33 35 1 0 0
SMALL
USER_CHARGES


@<TRIPOS>ATOM
      1 O1         -2.7856    3.3748   49.4508 O.2     1  ZINC000820901229   -0.5300
      2 C2         -3.2465    2.2577   49.5884 C.2     1  ZINC000820901229    0.6000
      3 N3         -2.8113    1.2483   48.8086 N.am    1  ZINC000820901229   -0.7100
      4 C4         -1.7873    1.4979   47.7910 C.3     1  ZINC000820901229    0.1600
      5 H5         -1.0859    2.2519   48.1482 H       1  ZINC000820901229    0.1000
      6 C6         -2.4498    1.9750   46.4885 C.3     1  ZINC000820901229   -0.1300
      7 C7         -1.4202    2.1853   45.3824 C.3     1  ZINC000820901229   -0.1100
      8 C8         -0.5753    0.9209   45.1546 C.3     1  ZINC000820901229   -0.1100
      9 C9          0.0836    0.5744   46.4738 C.3     1  ZINC000820901229    0.0800
     10 H10         0.6383    1.4363   46.8446 H       1  ZINC000820901229    0.0700
     11 O11         0.9120   -0.5820   46.5136 O.3     1  ZINC000820901229   -0.3700
     12 C12         1.0391   -0.9116   47.9203 C.3     1  ZINC000820901229    0.0500
     13 C13        -0.2314   -0.3765   48.6302 C.3     1  ZINC000820901229   -0.1500
     14 C14        -1.0462    0.2103   47.4770 C.3     1  ZINC000820901229   -0.1400
     15 H15        -1.7204   -0.5372   47.0588 H       1  ZINC000820901229    0.0900
     16 C16        -4.2757    2.0067   50.6112 C.2     1  ZINC000820901229    0.0100
     17 C17        -4.5520    2.8745   51.6100 C.2     1  ZINC000820901229   -0.2200
     18 S18        -5.7993    2.2220   52.5797 S.3     1  ZINC000820901229    0.3100
     19 C19        -5.8808    0.8280   51.5965 C.2     1  ZINC000820901229   -0.0100
     20 Br20       -7.0655   -0.6192   51.8758 Br      1  ZINC000820901229    0.0700
     21 N21        -5.0277    0.9023   50.6352 N.2     1  ZINC000820901229   -0.4100
     22 H22        -3.1759    0.3565   48.9211 H       1  ZINC000820901229    0.4100
     23 H23        -3.1746    1.2287   46.1634 H       1  ZINC000820901229    0.0700
     24 H24        -2.9681    2.9152   46.6762 H       1  ZINC000820901229    0.0700
     25 H25        -1.9377    2.4397   44.4574 H       1  ZINC000820901229    0.0800
     26 H26        -0.7622    3.0087   45.6595 H       1  ZINC000820901229    0.0700
     27 H27        -1.2161    0.0997   44.8333 H       1  ZINC000820901229    0.0700
     28 H28         0.1865    1.1151   44.3996 H       1  ZINC000820901229    0.0800
     29 H29         1.1060   -1.9925   48.0438 H       1  ZINC000820901229    0.0900
     30 H30         1.9259   -0.4324   48.3352 H       1  ZINC000820901229    0.0600
     31 H31        -0.7767   -1.1899   49.1090 H       1  ZINC000820901229    0.0800
     32 H32         0.0285    0.3940   49.3561 H       1  ZINC000820901229    0.0800
     33 H33        -4.0639    3.8247   51.7697 H       1  ZINC000820901229    0.2000
@<TRIPOS>BOND
     1     1     2    2
     2     2     3   am
     3     2    16    1
     4     3     4    1
     5     3    22    1
     6     4     5    1
     7     4    14    1
     8     4     6    1
     9     6     7    1
    10     6    23    1
    11     6    24    1
    12     7     8    1
    13     7    25    1
    14     7    26    1
    15     8     9    1
    16     8    27    1
    17     8    28    1
    18     9    10    1
    19     9    14    1
    20     9    11    1
    21    11    12    1
    22    12    13    1
    23    12    29    1
    24    12    30    1
    25    13    14    1
    26    13    31    1
    27    13    32    1
    28    14    15    1
    29    16    21    1
    30    16    17    2
    31    17    18    1
    32    17    33    1
    33    18    19    1
    34    19    20    1
    35    19    21    2
@<TRIPOS>SUBSTRUCTURE
     1 ZINC000820901229        1 TEMP              0 ****  ****    0 ROOT


##########                                Name:    ZINC000461678839
##########                DOCK_Rotatable_Bonds:                   6
##########                         Heavy_Atoms:                  28
##########                    Molecular_Weight:             404.939
##########                DOCK_Rotatable_Bonds:                   6
##########                       Formal_Charge:          -0.0200003
##########                     HBond_Acceptors:                   7
##########                        HBond_Donors:                   0
##########                         Heavy_Atoms:                  28
##########                          Grid_Score:          -28.944231
##########                     Grid_vdw_energy:          -28.683655
##########                      Grid_es_energy:           -0.260577
##########           Internal_energy_repulsive:           10.441326

@<TRIPOS>MOLECULE
ZINC000461678839
 57 60 1 0 0
SMALL
USER_CHARGES


@<TRIPOS>ATOM
      1 C1         -7.8558   -0.1345   50.8001 C.3     1  ZINC000461678839   -0.1500
      2 C2         -8.9940   -0.5615   51.7291 C.3     1  ZINC000461678839   -0.0900
      3 H3         -9.6713   -1.2181   51.1828 H       1  ZINC000461678839    0.0700
      4 C4         -9.7694    0.6944   52.1864 C.3     1  ZINC000461678839   -0.1100
      5 C5        -11.1117    0.2703   52.7199 C.3     1  ZINC000461678839   -0.1200
      6 C6        -11.1002    0.0137   54.2375 C.3     1  ZINC000461678839    0.0600
      7 N7         -9.9021   -0.7218   54.6984 N.3     1  ZINC000461678839   -0.4600
      8 C8        -10.0617   -1.1638   56.0021 C.2     1  ZINC000461678839    0.3700
      9 N9        -10.9789   -1.9953   56.4370 N.2     1  ZINC000461678839   -0.3100
     10 N10       -10.8321   -2.1859   57.6996 N.2     1  ZINC000461678839   -0.2500
     11 C11        -9.8211   -1.4930   58.1414 C.2     1  ZINC000461678839    0.1700
     12 C12        -9.3237   -1.4458   59.5633 C.3     1  ZINC000461678839    0.1500
     13 O13       -10.1271   -0.5372   60.3189 O.3     1  ZINC000461678839   -0.3100
     14 C14        -9.6592   -0.1694   61.5409 C.ar    1  ZINC000461678839    0.1400
     15 C15        -8.6902   -0.9349   62.1728 C.ar    1  ZINC000461678839   -0.2000
     16 C16        -8.2159   -0.5596   63.4148 C.ar    1  ZINC000461678839   -0.0700
     17 C17        -8.7070    0.5790   64.0287 C.ar    1  ZINC000461678839   -0.0700
     18 Cl18       -8.1099    1.0485   65.5897 Cl      1  ZINC000461678839   -0.0700
     19 C19        -9.6732    1.3443   63.3998 C.ar    1  ZINC000461678839   -0.0700
     20 C20       -10.1458    0.9752   62.1553 C.ar    1  ZINC000461678839   -0.1400
     21 N21        -9.2911   -0.8213   57.0748 N.pl3   1  ZINC000461678839   -0.4600
     22 C22        -8.1400    0.0849   57.0836 C.3     1  ZINC000461678839    0.1200
     23 C23        -8.6311    1.5336   57.0497 C.3     1  ZINC000461678839   -0.1400
     24 H24        -9.6214    1.5891   56.5975 H       1  ZINC000461678839    0.0900
     25 C25        -7.6313    2.4267   56.2757 C.3     1  ZINC000461678839   -0.1500
     26 C26        -7.6119    3.7147   57.1377 C.3     1  ZINC000461678839    0.0500
     27 O27        -7.7085    3.2168   58.4895 O.3     1  ZINC000461678839   -0.3700
     28 C28        -8.6528    2.1292   58.4707 C.3     1  ZINC000461678839    0.0400
     29 C29        -9.5183   -1.8067   53.8277 C.3     1  ZINC000461678839    0.0700
     30 C30        -8.4354   -1.2905   52.8624 C.3     1  ZINC000461678839   -0.1100
     31 H31        -7.3154   -1.0173   50.4582 H       1  ZINC000461678839    0.0500
     32 H32        -8.2673    0.3949   49.9407 H       1  ZINC000461678839    0.0500
     33 H33        -7.1738    0.5228   51.3395 H       1  ZINC000461678839    0.0600
     34 H34        -9.2092    1.2039   52.9705 H       1  ZINC000461678839    0.0700
     35 H35        -9.9088    1.3662   51.3394 H       1  ZINC000461678839    0.0700
     36 H36       -11.8392    1.0521   52.5015 H       1  ZINC000461678839    0.0800
     37 H37       -11.4186   -0.6437   52.2116 H       1  ZINC000461678839    0.0700
     38 H38       -11.1424    0.9724   54.7546 H       1  ZINC000461678839    0.0700
     39 H39       -11.9871   -0.5624   54.5015 H       1  ZINC000461678839    0.0500
     40 H40        -9.3881   -2.4406   60.0039 H       1  ZINC000461678839    0.0800
     41 H41        -8.2869   -1.1099   59.5744 H       1  ZINC000461678839    0.1000
     42 H42        -8.3071   -1.8241   61.6943 H       1  ZINC000461678839    0.1400
     43 H43        -7.4615   -1.1553   63.9071 H       1  ZINC000461678839    0.1400
     44 H44       -10.0551    2.2328   63.8803 H       1  ZINC000461678839    0.1400
     45 H45       -10.9000    1.5728   61.6647 H       1  ZINC000461678839    0.1400
     46 H46        -7.5552   -0.0793   57.9887 H       1  ZINC000461678839    0.1100
     47 H47        -7.5186   -0.1087   56.2094 H       1  ZINC000461678839    0.1000
     48 H48        -6.6438    1.9663   56.2420 H       1  ZINC000461678839    0.0800
     49 H49        -7.9953    2.6372   55.2701 H       1  ZINC000461678839    0.0900
     50 H50        -6.6779    4.2582   56.9947 H       1  ZINC000461678839    0.1000
     51 H51        -8.4663    4.3485   56.9001 H       1  ZINC000461678839    0.0600
     52 H52        -9.6505    2.5005   58.7049 H       1  ZINC000461678839    0.0500
     53 H53        -8.3582    1.3699   59.1951 H       1  ZINC000461678839    0.1100
     54 H54        -9.1202   -2.6302   54.4205 H       1  ZINC000461678839    0.0900
     55 H55       -10.3849   -2.1469   53.2608 H       1  ZINC000461678839    0.0600
     56 H56        -7.8652   -2.1399   52.4863 H       1  ZINC000461678839    0.0700
     57 H57        -7.7615   -0.6311   53.4093 H       1  ZINC000461678839    0.0700
@<TRIPOS>BOND
     1     1     2    1
     2     1    31    1
     3     1    32    1
     4     1    33    1
     5     2     3    1
     6     2    30    1
     7     2     4    1
     8     4     5    1
     9     4    34    1
    10     4    35    1
    11     5     6    1
    12     5    36    1
    13     5    37    1
    14     6     7    1
    15     6    38    1
    16     6    39    1
    17     7     8    1
    18     7    29    1
    19     8    21    1
    20     8     9    2
    21     9    10    1
    22    10    11    2
    23    11    12    1
    24    11    21    1
    25    12    13    1
    26    12    40    1
    27    12    41    1
    28    13    14    1
    29    14    20   ar
    30    14    15   ar
    31    15    16   ar
    32    15    42    1
    33    16    17   ar
    34    16    43    1
    35    17    18    1
    36    17    19   ar
    37    19    20   ar
    38    19    44    1
    39    20    45    1
    40    21    22    1
    41    22    23    1
    42    22    46    1
    43    22    47    1
    44    23    24    1
    45    23    28    1
    46    23    25    1
    47    25    26    1
    48    25    48    1
    49    25    49    1
    50    26    27    1
    51    26    50    1
    52    26    51    1
    53    27    28    1
    54    28    52    1
    55    28    53    1
    56    29    30    1
    57    29    54    1
    58    29    55    1
    59    30    56    1
    60    30    57    1
@<TRIPOS>SUBSTRUCTURE
     1 ZINC000461678839        1 TEMP              0 ****  ****    0 ROOT


##########                                Name:    ZINC000443394081
##########                DOCK_Rotatable_Bonds:                   8
##########                         Heavy_Atoms:                  27
##########                    Molecular_Weight:             389.878
##########                DOCK_Rotatable_Bonds:                   8
##########                       Formal_Charge:          -0.0300003
##########                     HBond_Acceptors:                   6
##########                        HBond_Donors:                   1
##########                         Heavy_Atoms:                  27
##########                          Grid_Score:          -28.912495
##########                     Grid_vdw_energy:          -27.927742
##########                      Grid_es_energy:           -0.984753
##########           Internal_energy_repulsive:           37.195572

@<TRIPOS>MOLECULE
ZINC000443394081
 51 53 1 0 0
SMALL
USER_CHARGES


@<TRIPOS>ATOM
      1 C1         -8.4591   -0.5773   51.5800 C.3     1  ZINC000443394081    0.0200
      2 O2         -9.6144   -1.4041   51.7342 O.3     1  ZINC000443394081   -0.3000
      3 C3        -10.3671   -1.2114   52.8502 C.ar    1  ZINC000443394081    0.1000
      4 C4        -10.0792   -1.9096   54.0065 C.ar    1  ZINC000443394081   -0.1200
      5 C5        -10.8545   -1.7087   55.1519 C.ar    1  ZINC000443394081   -0.1300
      6 C6        -10.5507   -2.4520   56.3904 C.2     1  ZINC000443394081    0.5700
      7 O7        -10.6627   -3.6624   56.4161 O.2     1  ZINC000443394081   -0.4900
      8 N8        -10.1491   -1.7890   57.4929 N.am    1  ZINC000443394081   -0.6100
      9 C9         -9.8145   -2.4034   58.7907 C.3     1  ZINC000443394081    0.0900
     10 C10        -8.8619   -1.3911   59.4748 C.3     1  ZINC000443394081   -0.1300
     11 C11        -9.4763   -0.0370   59.0319 C.3     1  ZINC000443394081   -0.1000
     12 H12       -10.3093    0.2384   59.6785 H       1  ZINC000443394081    0.0900
     13 C13        -8.4129    1.0630   59.0241 C.3     1  ZINC000443394081   -0.1500
     14 C14        -9.9658   -0.3341   57.5989 C.3     1  ZINC000443394081    0.1400
     15 H15       -10.9166    0.1682   57.4204 H       1  ZINC000443394081    0.0800
     16 C16        -8.9259    0.1448   56.5840 C.3     1  ZINC000443394081    0.0600
     17 O17        -9.0063    1.5656   56.4540 O.3     1  ZINC000443394081   -0.5400
     18 C18       -11.9171   -0.8028   55.1222 C.ar    1  ZINC000443394081   -0.1000
     19 C19       -12.1996   -0.1095   53.9649 C.ar    1  ZINC000443394081   -0.1800
     20 C20       -11.4263   -0.3046   52.8290 C.ar    1  ZINC000443394081    0.1300
     21 O21       -11.7085    0.3808   51.6912 O.3     1  ZINC000443394081   -0.3000
     22 C22       -12.8776   -0.0128   50.9699 C.3     1  ZINC000443394081    0.1000
     23 C23       -13.3356    1.1260   50.0956 C.ar    1  ZINC000443394081   -0.0800
     24 C24       -13.1143    2.4321   50.4895 C.ar    1  ZINC000443394081   -0.0800
     25 C25       -13.5345    3.4770   49.6875 C.ar    1  ZINC000443394081   -0.1100
     26 C26       -14.1764    3.2161   48.4915 C.ar    1  ZINC000443394081   -0.1000
     27 C27       -14.3983    1.9101   48.0964 C.ar    1  ZINC000443394081   -0.1100
     28 C28       -13.9727    0.8642   48.8954 C.ar    1  ZINC000443394081   -0.0300
     29 Cl29      -14.2509   -0.7761   48.3999 Cl      1  ZINC000443394081   -0.0700
     30 H30        -7.9504   -0.8335   50.6507 H       1  ZINC000443394081    0.1000
     31 H31        -8.7626    0.4692   51.5514 H       1  ZINC000443394081    0.0600
     32 H32        -7.7834   -0.7368   52.4202 H       1  ZINC000443394081    0.0600
     33 H33        -9.2569   -2.6095   54.0255 H       1  ZINC000443394081    0.1500
     34 H34       -10.7152   -2.5406   59.3889 H       1  ZINC000443394081    0.0700
     35 H35        -9.3093   -3.3573   58.6398 H       1  ZINC000443394081    0.0800
     36 H36        -8.8921   -1.4978   60.5591 H       1  ZINC000443394081    0.0900
     37 H37        -7.8437   -1.4991   59.1012 H       1  ZINC000443394081    0.0800
     38 H38        -7.6043    0.7819   58.3495 H       1  ZINC000443394081    0.0600
     39 H39        -8.8598    1.9980   58.6858 H       1  ZINC000443394081    0.0600
     40 H40        -8.0172    1.1931   60.0314 H       1  ZINC000443394081    0.0600
     41 H41        -7.9291   -0.1329   56.9267 H       1  ZINC000443394081    0.0600
     42 H42        -9.1205   -0.3201   55.6176 H       1  ZINC000443394081    0.0400
     43 H43        -8.3923    1.9366   55.8055 H       1  ZINC000443394081    0.3700
     44 H44       -12.5177   -0.6458   56.0059 H       1  ZINC000443394081    0.1400
     45 H45       -13.0218    0.5904   53.9432 H       1  ZINC000443394081    0.1400
     46 H46       -12.6469   -0.8780   50.3483 H       1  ZINC000443394081    0.0800
     47 H47       -13.6688   -0.2715   51.6736 H       1  ZINC000443394081    0.0800
     48 H48       -12.6134    2.6365   51.4243 H       1  ZINC000443394081    0.1400
     49 H49       -13.3613    4.4975   49.9958 H       1  ZINC000443394081    0.1300
     50 H50       -14.5050    4.0327   47.8658 H       1  ZINC000443394081    0.1300
     51 H51       -14.8999    1.7064   47.1618 H       1  ZINC000443394081    0.1400
@<TRIPOS>BOND
     1     1     2    1
     2     1    30    1
     3     1    31    1
     4     1    32    1
     5     2     3    1
     6     3    20   ar
     7     3     4   ar
     8     4     5   ar
     9     4    33    1
    10     5     6    1
    11     5    18   ar
    12     6     7    2
    13     6     8   am
    14     8    14    1
    15     8     9    1
    16     9    10    1
    17     9    34    1
    18     9    35    1
    19    10    11    1
    20    10    36    1
    21    10    37    1
    22    11    12    1
    23    11    13    1
    24    11    14    1
    25    13    38    1
    26    13    39    1
    27    13    40    1
    28    14    15    1
    29    14    16    1
    30    16    17    1
    31    16    41    1
    32    16    42    1
    33    17    43    1
    34    18    19   ar
    35    18    44    1
    36    19    20   ar
    37    19    45    1
    38    20    21    1
    39    21    22    1
    40    22    23    1
    41    22    46    1
    42    22    47    1
    43    23    28   ar
    44    23    24   ar
    45    24    25   ar
    46    24    48    1
    47    25    26   ar
    48    25    49    1
    49    26    27   ar
    50    26    50    1
    51    27    28   ar
    52    27    51    1
    53    28    29    1
@<TRIPOS>SUBSTRUCTURE
     1 ZINC000443394081        1 TEMP              0 ****  ****    0 ROOT


##########                                Name:    ZINC000470948647
##########                DOCK_Rotatable_Bonds:                   6
##########                         Heavy_Atoms:                  29
##########                    Molecular_Weight:             412.556
##########                DOCK_Rotatable_Bonds:                   6
##########                       Formal_Charge:           0.0100001
##########                     HBond_Acceptors:                   7
##########                        HBond_Donors:                   1
##########                         Heavy_Atoms:                  29
##########                          Grid_Score:          -28.892973
##########                     Grid_vdw_energy:          -27.535969
##########                      Grid_es_energy:           -1.357004
##########           Internal_energy_repulsive:           14.643398

@<TRIPOS>MOLECULE
ZINC000470948647
 57 60 1 0 0
SMALL
USER_CHARGES


@<TRIPOS>ATOM
      1 C1         -7.9487   -0.5031   63.8511 C.3     1  ZINC000470948647   -0.1100
      2 C2         -8.8957   -0.4685   62.6794 C.ar    1  ZINC000470948647   -0.1000
      3 C3         -8.6318   -1.2305   61.5564 C.ar    1  ZINC000470948647   -0.1100
      4 C4         -9.4980   -1.2010   60.4807 C.ar    1  ZINC000470948647   -0.1100
      5 C5        -10.6347   -0.4051   60.5282 C.ar    1  ZINC000470948647    0.1400
      6 N6        -11.5143   -0.3733   59.4405 N.am    1  ZINC000470948647   -0.6700
      7 C7        -12.1314   -1.5024   59.0397 C.2     1  ZINC000470948647    0.5100
      8 O8        -11.9245   -2.5461   59.6219 O.2     1  ZINC000470948647   -0.4800
      9 C9        -13.0788   -1.4681   57.8682 C.3     1  ZINC000470948647    0.1200
     10 H10       -13.4638   -2.4739   57.7005 H       1  ZINC000470948647    0.1200
     11 C11       -14.2613   -0.5344   58.2125 C.3     1  ZINC000470948647   -0.0700
     12 S12       -13.7413    1.0278   57.3866 S.3     1  ZINC000470948647   -0.2500
     13 C13       -12.8657    0.1613   56.0188 C.3     1  ZINC000470948647    0.1600
     14 N14       -12.3449   -1.0449   56.6853 N.am    1  ZINC000470948647   -0.6000
     15 C15       -11.2659   -1.7127   56.2310 C.2     1  ZINC000470948647    0.6300
     16 O16       -10.8743   -2.7043   56.8153 O.2     1  ZINC000470948647   -0.5100
     17 C17       -10.5591   -1.2398   55.0233 C.2     1  ZINC000470948647   -0.0100
     18 N18        -9.2577   -1.0795   54.8883 N.2     1  ZINC000470948647   -0.2700
     19 N19        -8.9861   -0.6539   53.7071 N.pl3   1  ZINC000470948647   -0.2700
     20 C20        -7.6385   -0.3661   53.2094 C.3     1  ZINC000470948647    0.1500
     21 C21        -7.3070   -1.3158   52.0565 C.3     1  ZINC000470948647   -0.1300
     22 C22        -5.8997   -1.0151   51.5368 C.3     1  ZINC000470948647   -0.1200
     23 C23        -5.8373    0.4308   51.0407 C.3     1  ZINC000470948647   -0.1300
     24 C24        -6.1688    1.3804   52.1936 C.3     1  ZINC000470948647   -0.1200
     25 C25        -7.5760    1.0799   52.7133 C.3     1  ZINC000470948647   -0.1300
     26 C26       -10.1212   -0.5100   52.9900 C.2     1  ZINC000470948647   -0.0100
     27 C27       -11.1497   -0.8788   53.7891 C.2     1  ZINC000470948647   -0.1700
     28 C28       -10.8972    0.3590   61.6581 C.ar    1  ZINC000470948647   -0.1100
     29 C29       -12.1300    1.2238   61.7141 C.3     1  ZINC000470948647   -0.1100
     30 C30       -10.0299    0.3212   62.7320 C.ar    1  ZINC000470948647   -0.1000
     31 H31        -8.2479   -1.2959   64.5368 H       1  ZINC000470948647    0.0700
     32 H32        -6.9364   -0.6939   63.4946 H       1  ZINC000470948647    0.0700
     33 H33        -7.9767    0.4553   64.3695 H       1  ZINC000470948647    0.0700
     34 H34        -7.7475   -1.8494   61.5200 H       1  ZINC000470948647    0.1200
     35 H35        -9.2909   -1.7960   59.6035 H       1  ZINC000470948647    0.1400
     36 H36       -11.6799    0.4615   58.9749 H       1  ZINC000470948647    0.4100
     37 H37       -15.1929   -0.9099   57.7890 H       1  ZINC000470948647    0.1200
     38 H38       -14.3506   -0.3967   59.2901 H       1  ZINC000470948647    0.1200
     39 H39       -13.5607   -0.1050   55.2224 H       1  ZINC000470948647    0.1000
     40 H40       -12.0499    0.7728   55.6332 H       1  ZINC000470948647    0.1400
     41 H41        -6.9166   -0.5056   54.0140 H       1  ZINC000470948647    0.1100
     42 H42        -7.3516   -2.3458   52.4100 H       1  ZINC000470948647    0.0800
     43 H43        -8.0290   -1.1762   51.2519 H       1  ZINC000470948647    0.0800
     44 H44        -5.1778   -1.1547   52.3414 H       1  ZINC000470948647    0.0700
     45 H45        -5.6636   -1.6917   50.7154 H       1  ZINC000470948647    0.0800
     46 H46        -4.8347    0.6449   50.6704 H       1  ZINC000470948647    0.0700
     47 H47        -6.5593    0.5704   50.2360 H       1  ZINC000470948647    0.0700
     48 H48        -5.4468    1.2408   52.9982 H       1  ZINC000470948647    0.0700
     49 H49        -6.1243    2.4105   51.8401 H       1  ZINC000470948647    0.0700
     50 H50        -8.2981    1.2194   51.9087 H       1  ZINC000470948647    0.0700
     51 H51        -7.8123    1.7563   53.5347 H       1  ZINC000470948647    0.0700
     52 H52       -10.1944   -0.1690   51.9679 H       1  ZINC000470948647    0.1800
     53 H53       -12.2004   -0.8883   53.5397 H       1  ZINC000470948647    0.1600
     54 H54       -12.9571    0.6507   62.1332 H       1  ZINC000470948647    0.0700
     55 H55       -11.9357    2.0933   62.3419 H       1  ZINC000470948647    0.0700
     56 H56       -12.3891    1.5528   60.7077 H       1  ZINC000470948647    0.0600
     57 H57       -10.2336    0.9149   63.6108 H       1  ZINC000470948647    0.1300
@<TRIPOS>BOND
     1     1     2    1
     2     1    31    1
     3     1    32    1
     4     1    33    1
     5     2    30   ar
     6     2     3   ar
     7     3     4   ar
     8     3    34    1
     9     4     5   ar
    10     4    35    1
    11     5     6    1
    12     5    28   ar
    13     6     7   am
    14     6    36    1
    15     7     8    2
    16     7     9    1
    17     9    10    1
    18     9    14    1
    19     9    11    1
    20    11    12    1
    21    11    37    1
    22    11    38    1
    23    12    13    1
    24    13    14    1
    25    13    39    1
    26    13    40    1
    27    14    15   am
    28    15    16    2
    29    15    17    1
    30    17    27    1
    31    17    18    2
    32    18    19    1
    33    19    20    1
    34    19    26    1
    35    20    25    1
    36    20    21    1
    37    20    41    1
    38    21    22    1
    39    21    42    1
    40    21    43    1
    41    22    23    1
    42    22    44    1
    43    22    45    1
    44    23    24    1
    45    23    46    1
    46    23    47    1
    47    24    25    1
    48    24    48    1
    49    24    49    1
    50    25    50    1
    51    25    51    1
    52    26    27    2
    53    26    52    1
    54    27    53    1
    55    28    29    1
    56    28    30   ar
    57    29    54    1
    58    29    55    1
    59    29    56    1
    60    30    57    1
@<TRIPOS>SUBSTRUCTURE
     1 ZINC000470948647        1 TEMP              0 ****  ****    0 ROOT


##########                                Name:    ZINC000364058410
##########                DOCK_Rotatable_Bonds:                   5
##########                         Heavy_Atoms:                  25
##########                    Molecular_Weight:             358.464
##########                DOCK_Rotatable_Bonds:                   5
##########                       Formal_Charge:           0.0100002
##########                     HBond_Acceptors:                   7
##########                        HBond_Donors:                   0
##########                         Heavy_Atoms:                  25
##########                          Grid_Score:          -28.882896
##########                     Grid_vdw_energy:          -28.748268
##########                      Grid_es_energy:           -0.134629
##########           Internal_energy_repulsive:           60.928337

@<TRIPOS>MOLECULE
ZINC000364058410
 47 50 1 0 0
SMALL
USER_CHARGES


@<TRIPOS>ATOM
      1 C1        -15.1457   -3.2281   59.1419 C.3     1  ZINC000364058410   -0.0700
      2 C2        -14.0269   -3.6073   58.2062 C.2     1  ZINC000364058410   -0.2500
      3 C3        -12.7380   -3.2069   58.3031 C.2     1  ZINC000364058410    0.0800
      4 N4        -12.0569   -3.7618   57.2786 N.pl3   1  ZINC000364058410   -0.3600
      5 C5        -10.6284   -3.5926   57.0014 C.3     1  ZINC000364058410    0.1300
      6 C6        -10.3263   -3.1306   55.5643 C.3     1  ZINC000364058410    0.1100
      7 N7        -10.4093   -1.7563   56.0956 N.am    1  ZINC000364058410   -0.6500
      8 C8        -10.6867   -0.5514   55.5593 C.2     1  ZINC000364058410    0.5600
      9 O9        -10.6806    0.4395   56.2586 O.2     1  ZINC000364058410   -0.5000
     10 C10       -11.0044   -0.4353   54.0908 C.3     1  ZINC000364058410    0.1400
     11 H11       -11.3272   -1.4040   53.7091 H       1  ZINC000364058410    0.0900
     12 C12       -12.1198    0.5947   53.8865 C.3     1  ZINC000364058410   -0.1200
     13 C13       -12.3415    0.8102   52.3876 C.3     1  ZINC000364058410   -0.1200
     14 C14       -11.0593    1.3545   51.7536 C.3     1  ZINC000364058410   -0.1400
     15 C15        -9.9319    0.3330   51.9338 C.3     1  ZINC000364058410    0.1000
     16 N16        -9.8083    0.0077   53.3616 N.am    1  ZINC000364058410   -0.6000
     17 C17        -8.6216    0.1186   53.9908 C.2     1  ZINC000364058410    0.5900
     18 O18        -8.5323   -0.1538   55.1736 O.2     1  ZINC000364058410   -0.4900
     19 C19        -7.4386    0.5674   53.2507 C.2     1  ZINC000364058410   -0.2600
     20 C20        -6.5917   -0.2400   52.5450 C.2     1  ZINC000364058410   -0.0600
     21 C21        -5.5611    0.4446   51.9459 C.2     1  ZINC000364058410   -0.1400
     22 C22        -5.5620    1.7668   52.1526 C.2     1  ZINC000364058410   -0.2400
     23 S23        -6.8864    2.2318   53.1225 S.3     1  ZINC000364058410    0.2100
     24 C24       -10.0668   -2.2313   57.4503 C.3     1  ZINC000364058410    0.0900
     25 N25       -12.9570   -4.5284   56.5274 N.2     1  ZINC000364058410   -0.3000
     26 C26       -14.1361   -4.4399   57.0877 C.2     1  ZINC000364058410    0.0500
     27 H27       -15.2017   -3.9530   59.9539 H       1  ZINC000364058410    0.0600
     28 H28       -14.9557   -2.2364   59.5526 H       1  ZINC000364058410    0.0600
     29 H29       -16.0892   -3.2206   58.5959 H       1  ZINC000364058410    0.0600
     30 H30       -12.3278   -2.5593   59.0639 H       1  ZINC000364058410    0.1700
     31 H31       -10.0289   -4.4432   57.3259 H       1  ZINC000364058410    0.1300
     32 H32        -9.3317   -3.4068   55.2140 H       1  ZINC000364058410    0.1100
     33 H33       -11.1130   -3.3738   54.8501 H       1  ZINC000364058410    0.0900
     34 H34       -13.0403    0.2292   54.3416 H       1  ZINC000364058410    0.0800
     35 H35       -11.8333    1.5381   54.3512 H       1  ZINC000364058410    0.0800
     36 H36       -12.6038   -0.1385   51.9193 H       1  ZINC000364058410    0.0700
     37 H37       -13.1515    1.5243   52.2393 H       1  ZINC000364058410    0.0800
     38 H38       -11.2250    1.5297   50.6907 H       1  ZINC000364058410    0.0800
     39 H39       -10.7828    2.2907   52.2384 H       1  ZINC000364058410    0.0700
     40 H40       -10.1663   -0.5723   51.3739 H       1  ZINC000364058410    0.0800
     41 H41        -8.9945    0.7560   51.5727 H       1  ZINC000364058410    0.0900
     42 H42        -6.7191   -1.3096   52.4660 H       1  ZINC000364058410    0.1500
     43 H43        -4.8056   -0.0486   51.3522 H       1  ZINC000364058410    0.1500
     44 H44        -4.8251    2.4489   51.7550 H       1  ZINC000364058410    0.1700
     45 H45       -10.6464   -1.7565   58.2420 H       1  ZINC000364058410    0.0900
     46 H46        -8.9960   -2.2433   57.6540 H       1  ZINC000364058410    0.1100
     47 H47       -15.0393   -4.9206   56.7419 H       1  ZINC000364058410    0.1800
@<TRIPOS>BOND
     1     1     2    1
     2     1    27    1
     3     1    28    1
     4     1    29    1
     5     2    26    1
     6     2     3    2
     7     3     4    1
     8     3    30    1
     9     4     5    1
    10     4    25    1
    11     5    24    1
    12     5     6    1
    13     5    31    1
    14     6     7    1
    15     6    32    1
    16     6    33    1
    17     7     8   am
    18     7    24    1
    19     8     9    2
    20     8    10    1
    21    10    11    1
    22    10    16    1
    23    10    12    1
    24    12    13    1
    25    12    34    1
    26    12    35    1
    27    13    14    1
    28    13    36    1
    29    13    37    1
    30    14    15    1
    31    14    38    1
    32    14    39    1
    33    15    16    1
    34    15    40    1
    35    15    41    1
    36    16    17   am
    37    17    18    2
    38    17    19    1
    39    19    23    1
    40    19    20    2
    41    20    21    1
    42    20    42    1
    43    21    22    2
    44    21    43    1
    45    22    23    1
    46    22    44    1
    47    24    45    1
    48    24    46    1
    49    25    26    2
    50    26    47    1
@<TRIPOS>SUBSTRUCTURE
     1 ZINC000364058410        1 TEMP              0 ****  ****    0 ROOT


##########                                Name:    ZINC001220171460
##########                DOCK_Rotatable_Bonds:                  10
##########                         Heavy_Atoms:                  25
##########                    Molecular_Weight:             383.773
##########                DOCK_Rotatable_Bonds:                  10
##########                       Formal_Charge:           0.0199996
##########                     HBond_Acceptors:                  10
##########                        HBond_Donors:                   3
##########                         Heavy_Atoms:                  25
##########                          Grid_Score:          -28.880758
##########                     Grid_vdw_energy:          -28.805975
##########                      Grid_es_energy:           -0.074783
##########           Internal_energy_repulsive:           12.657615

@<TRIPOS>MOLECULE
ZINC001220171460
 43 44 1 0 0
SMALL
USER_CHARGES


@<TRIPOS>ATOM
      1 C1         -1.3731    3.1578   53.7838 C.3     1  ZINC001220171460    0.0200
      2 O2         -2.4022    4.1449   53.8757 O.3     1  ZINC001220171460   -0.3100
      3 C3         -3.6793    3.6953   54.0066 C.ar    1  ZINC001220171460    0.1000
      4 C4         -4.1784    3.3793   55.2591 C.ar    1  ZINC001220171460   -0.1500
      5 C5         -5.4777    2.9219   55.3917 C.ar    1  ZINC001220171460   -0.0600
      6 Cl6        -6.1012    2.5271   56.9630 Cl      1  ZINC001220171460   -0.0400
      7 C7         -6.2819    2.7788   54.2729 C.ar    1  ZINC001220171460    0.1000
      8 F8         -7.5500    2.3323   54.4065 F       1  ZINC001220171460   -0.1200
      9 C9         -5.7885    3.0930   53.0185 C.ar    1  ZINC001220171460   -0.1200
     10 C10        -4.4889    3.5572   52.8815 C.ar    1  ZINC001220171460    0.1800
     11 N11        -3.9872    3.8761   51.6117 N.am    1  ZINC001220171460   -0.6700
     12 C12        -3.6530    2.8928   50.7528 C.2     1  ZINC001220171460    0.7100
     13 O13        -3.7867    1.7291   51.0790 O.2     1  ZINC001220171460   -0.5700
     14 N14        -3.1706    3.1993   49.5321 N.am    1  ZINC001220171460   -0.7400
     15 C15        -2.8057    2.1304   48.5991 C.3     1  ZINC001220171460    0.1400
     16 C16        -1.5054    2.5006   47.8829 C.3     1  ZINC001220171460   -0.1400
     17 C17        -1.2198    1.4764   46.7826 C.3     1  ZINC001220171460    0.0500
     18 H18        -0.1438    1.3236   46.6989 H       1  ZINC001220171460    0.1000
     19 N19        -1.8707    0.2029   47.1181 N.3     1  ZINC001220171460   -0.6500
     20 C20        -0.9819   -0.6469   47.9217 C.3     1  ZINC001220171460    0.0100
     21 C21        -0.7569   -2.0833   47.4453 C.3     1  ZINC001220171460   -0.2000
     22 C22         0.3602   -1.0471   47.3056 C.3     1  ZINC001220171460   -0.1600
     23 C23        -1.7666    1.9933   45.4504 C.3     1  ZINC001220171460    0.4600
     24 F24        -3.1391    2.2348   45.5718 F       1  ZINC001220171460   -0.1800
     25 F25        -1.1126    3.1815   45.1073 F       1  ZINC001220171460   -0.1800
     26 F26        -1.5478    1.0361   44.4537 F       1  ZINC001220171460   -0.1700
     27 H27        -1.3767    2.5442   54.6847 H       1  ZINC001220171460    0.0600
     28 H28        -1.5520    2.5263   52.9136 H       1  ZINC001220171460    0.0600
     29 H29        -0.4056    3.6497   53.6831 H       1  ZINC001220171460    0.1100
     30 H30        -3.5532    3.4897   56.1329 H       1  ZINC001220171460    0.1500
     31 H31        -6.4166    2.9807   52.1471 H       1  ZINC001220171460    0.1800
     32 H32        -3.8805    4.8045   51.3515 H       1  ZINC001220171460    0.4200
     33 H33        -3.0651    4.1276   49.2714 H       1  ZINC001220171460    0.4000
     34 H34        -2.6653    1.2000   49.1493 H       1  ZINC001220171460    0.0800
     35 H35        -3.6010    2.0018   47.8649 H       1  ZINC001220171460    0.0700
     36 H36        -1.6039    3.4916   47.4400 H       1  ZINC001220171460    0.1000
     37 H37        -0.6839    2.5027   48.5993 H       1  ZINC001220171460    0.1000
     38 H38        -2.7476    0.3589   47.5921 H       1  ZINC001220171460    0.3600
     39 H39        -1.0096   -0.4716   48.9973 H       1  ZINC001220171460    0.1200
     40 H40        -0.6366   -2.8533   48.2073 H       1  ZINC001220171460    0.1000
     41 H41        -1.2684   -2.3977   46.5354 H       1  ZINC001220171460    0.1000
     42 H42         0.5836   -0.6799   46.3040 H       1  ZINC001220171460    0.1000
     43 H43         1.2152   -1.1355   47.9758 H       1  ZINC001220171460    0.1000
@<TRIPOS>BOND
     1     1     2    1
     2     1    27    1
     3     1    28    1
     4     1    29    1
     5     2     3    1
     6     3    10   ar
     7     3     4   ar
     8     4     5   ar
     9     4    30    1
    10     5     6    1
    11     5     7   ar
    12     7     8    1
    13     7     9   ar
    14     9    10   ar
    15     9    31    1
    16    10    11    1
    17    11    12   am
    18    11    32    1
    19    12    13    2
    20    12    14   am
    21    14    15    1
    22    14    33    1
    23    15    16    1
    24    15    34    1
    25    15    35    1
    26    16    17    1
    27    16    36    1
    28    16    37    1
    29    17    18    1
    30    17    19    1
    31    17    23    1
    32    19    20    1
    33    19    38    1
    34    20    22    1
    35    20    21    1
    36    20    39    1
    37    21    22    1
    38    21    40    1
    39    21    41    1
    40    22    42    1
    41    22    43    1
    42    23    24    1
    43    23    25    1
    44    23    26    1
@<TRIPOS>SUBSTRUCTURE
     1 ZINC001220171460        1 TEMP              0 ****  ****    0 ROOT


##########                                Name:    ZINC000458730620
##########                DOCK_Rotatable_Bonds:                   9
##########                         Heavy_Atoms:                  25
##########                    Molecular_Weight:              375.44
##########                DOCK_Rotatable_Bonds:                   9
##########                       Formal_Charge:        -1.86265e-07
##########                     HBond_Acceptors:                   9
##########                        HBond_Donors:                   3
##########                         Heavy_Atoms:                  25
##########                          Grid_Score:          -28.872772
##########                     Grid_vdw_energy:          -27.476568
##########                      Grid_es_energy:           -1.396204
##########           Internal_energy_repulsive:           30.639614

@<TRIPOS>MOLECULE
ZINC000458730620
 48 49 1 0 0
SMALL
USER_CHARGES


@<TRIPOS>ATOM
      1 C1         -6.2890    4.7774   55.8144 C.3     1  ZINC000458730620   -0.1600
      2 C2         -7.1842    3.7329   55.1446 C.3     1  ZINC000458730620    0.2000
      3 C3         -8.2248    4.4374   54.2718 C.3     1  ZINC000458730620   -0.1600
      4 N4         -6.3647    2.8499   54.3109 N.am    1  ZINC000458730620   -0.7400
      5 C5         -5.6567    3.3592   53.2833 C.2     1  ZINC000458730620    0.7100
      6 O6         -5.6992    4.5513   53.0474 O.2     1  ZINC000458730620   -0.5800
      7 N7         -4.9015    2.5472   52.5173 N.am    1  ZINC000458730620   -0.7500
      8 C8         -4.1306    3.1011   51.4015 C.3     1  ZINC000458730620    0.1300
      9 C9         -4.0245    2.0578   50.2873 C.3     1  ZINC000458730620    0.1000
     10 N10        -3.7579    2.7297   49.0130 N.am    1  ZINC000458730620   -1.1100
     11 S11        -2.2038    2.8633   48.4568 S.o2    1  ZINC000458730620    2.7000
     12 O12        -2.2913    3.4162   47.1507 O.2     1  ZINC000458730620   -0.9400
     13 O13        -1.4525    3.4605   49.5048 O.2     1  ZINC000458730620   -0.9400
     14 C14        -1.5764    1.2282   48.2639 C.ar    1  ZINC000458730620   -0.7300
     15 C15        -0.6901    0.7146   49.1915 C.ar    1  ZINC000458730620    0.0400
     16 C16        -0.1976   -0.5682   49.0417 C.ar    1  ZINC000458730620   -0.1800
     17 C17        -0.5918   -1.3401   47.9620 C.ar    1  ZINC000458730620    0.1900
     18 F18        -0.1105   -2.5940   47.8162 F       1  ZINC000458730620   -0.1200
     19 C19        -1.4797   -0.8266   47.0322 C.ar    1  ZINC000458730620   -0.2100
     20 C20        -1.9763    0.4561   47.1860 C.ar    1  ZINC000458730620    0.2200
     21 F21        -2.8428    0.9584   46.2794 F       1  ZINC000458730620   -0.1100
     22 C22        -7.8945    2.9061   56.2182 C.3     1  ZINC000458730620   -0.1100
     23 C23        -8.5304    1.6136   55.6799 C.3     1  ZINC000458730620   -0.1400
     24 C24        -8.0418    0.9299   56.9678 C.3     1  ZINC000458730620   -0.1400
     25 C25        -6.9472    2.0081   57.0314 C.3     1  ZINC000458730620   -0.1400
     26 H26        -6.9055    5.4717   56.3854 H       1  ZINC000458730620    0.0600
     27 H27        -5.5877    4.2792   56.4839 H       1  ZINC000458730620    0.0500
     28 H28        -5.7362    5.3252   55.0514 H       1  ZINC000458730620    0.0800
     29 H29        -7.7187    5.0265   53.5070 H       1  ZINC000458730620    0.0800
     30 H30        -8.8625    3.6934   53.7947 H       1  ZINC000458730620    0.0500
     31 H31        -8.8345    5.0944   54.8922 H       1  ZINC000458730620    0.0600
     32 H32        -6.3317    1.8989   54.4984 H       1  ZINC000458730620    0.3900
     33 H33        -4.8686    1.5961   52.7048 H       1  ZINC000458730620    0.4000
     34 H34        -4.6316    3.9906   51.0198 H       1  ZINC000458730620    0.0800
     35 H35        -3.1313    3.3667   51.7467 H       1  ZINC000458730620    0.0800
     36 H36        -3.2109    1.3681   50.5116 H       1  ZINC000458730620    0.0900
     37 H37        -4.9610    1.5045   50.2174 H       1  ZINC000458730620    0.0700
     38 H38        -4.4915    3.0962   48.4951 H       1  ZINC000458730620    0.4300
     39 H39        -0.3818    1.3161   50.0338 H       1  ZINC000458730620    0.1700
     40 H40         0.4953   -0.9685   49.7670 H       1  ZINC000458730620    0.1600
     41 H41        -1.7877   -1.4279   46.1896 H       1  ZINC000458730620    0.1600
     42 H42        -8.5678    3.5016   56.8346 H       1  ZINC000458730620    0.1100
     43 H43        -9.6161    1.6628   55.5967 H       1  ZINC000458730620    0.0700
     44 H44        -8.0523    1.2352   54.7763 H       1  ZINC000458730620    0.0800
     45 H45        -8.7563    0.9841   57.7891 H       1  ZINC000458730620    0.0800
     46 H46        -7.6545   -0.0765   56.8080 H       1  ZINC000458730620    0.0700
     47 H47        -6.0363    1.7377   56.4972 H       1  ZINC000458730620    0.0800
     48 H48        -6.7547    2.3760   58.0391 H       1  ZINC000458730620    0.0700
@<TRIPOS>BOND
     1     1     2    1
     2     1    26    1
     3     1    27    1
     4     1    28    1
     5     2     3    1
     6     2     4    1
     7     2    22    1
     8     3    29    1
     9     3    30    1
    10     3    31    1
    11     4     5   am
    12     4    32    1
    13     5     6    2
    14     5     7   am
    15     7     8    1
    16     7    33    1
    17     8     9    1
    18     8    34    1
    19     8    35    1
    20     9    10    1
    21     9    36    1
    22     9    37    1
    23    10    11   am
    24    10    38    1
    25    11    12    2
    26    11    13    2
    27    11    14    1
    28    14    20   ar
    29    14    15   ar
    30    15    16   ar
    31    15    39    1
    32    16    17   ar
    33    16    40    1
    34    17    18    1
    35    17    19   ar
    36    19    20   ar
    37    19    41    1
    38    20    21    1
    39    22    25    1
    40    22    23    1
    41    22    42    1
    42    23    24    1
    43    23    43    1
    44    23    44    1
    45    24    25    1
    46    24    45    1
    47    24    46    1
    48    25    47    1
    49    25    48    1
@<TRIPOS>SUBSTRUCTURE
     1 ZINC000458730620        1 TEMP              0 ****  ****    0 ROOT


##########                                Name:    ZINC000643274279
##########                DOCK_Rotatable_Bonds:                   6
##########                         Heavy_Atoms:                  29
##########                    Molecular_Weight:             392.454
##########                DOCK_Rotatable_Bonds:                   6
##########                       Formal_Charge:         -0.00999939
##########                     HBond_Acceptors:                   6
##########                        HBond_Donors:                   2
##########                         Heavy_Atoms:                  29
##########                          Grid_Score:          -28.861284
##########                     Grid_vdw_energy:          -27.479959
##########                      Grid_es_energy:           -1.381325
##########           Internal_energy_repulsive:            9.530477

@<TRIPOS>MOLECULE
ZINC000643274279
 53 56 1 0 0
SMALL
USER_CHARGES


@<TRIPOS>ATOM
      1 O1        -12.1286   -0.8892   51.3247 O.2     1  ZINC000643274279   -0.4900
      2 C2        -12.2269    0.1410   51.9589 C.2     1  ZINC000643274279    0.5100
      3 N3        -12.9819    1.1531   51.4877 N.am    1  ZINC000643274279   -0.6400
      4 C4        -13.6470    1.0186   50.2659 C.ar    1  ZINC000643274279    0.1300
      5 C5        -13.4229    1.9399   49.2489 C.ar    1  ZINC000643274279   -0.1000
      6 C6        -14.0860    1.8216   48.0395 C.ar    1  ZINC000643274279   -0.1000
      7 C7        -14.9738    0.7871   47.8424 C.ar    1  ZINC000643274279   -0.0600
      8 C8        -15.7554    0.6938   46.5437 C.3     1  ZINC000643274279   -0.0900
      9 C9        -15.2903   -0.5308   45.7642 C.3     1  ZINC000643274279   -0.1200
     10 C10       -16.0605   -1.7774   46.1732 C.3     1  ZINC000643274279   -0.1100
     11 C11       -15.7126   -2.2949   47.5460 C.3     1  ZINC000643274279   -0.1600
     12 C12       -16.1098   -1.2812   48.6014 C.2     1  ZINC000643274279    0.4100
     13 O13       -17.1459   -1.3918   49.2213 O.2     1  ZINC000643274279   -0.4400
     14 C14       -15.1892   -0.1571   48.8460 C.ar    1  ZINC000643274279   -0.1300
     15 C15       -14.5250   -0.0373   50.0683 C.ar    1  ZINC000643274279   -0.1000
     16 C16       -11.5161    0.2847   53.2646 C.2     1  ZINC000643274279    0.5200
     17 O17       -12.1508    0.3502   54.2970 O.2     1  ZINC000643274279   -0.5000
     18 N18       -10.1700    0.3415   53.2964 N.am    1  ZINC000643274279   -0.5800
     19 C19        -9.2792    0.2739   52.1236 C.3     1  ZINC000643274279    0.0900
     20 C20        -7.9768    0.9818   52.5736 C.3     1  ZINC000643274279   -0.1400
     21 C21        -7.8719    0.5295   54.0541 C.3     1  ZINC000643274279   -0.1200
     22 C22        -9.3469    0.4877   54.5058 C.3     1  ZINC000643274279    0.1800
     23 H23        -9.6021    1.4119   55.0245 H       1  ZINC000643274279    0.0900
     24 C24        -9.5701   -0.6904   55.4186 C.ar    1  ZINC000643274279   -0.1000
     25 C25        -9.8340   -1.9377   54.8837 C.ar    1  ZINC000643274279   -0.0900
     26 C26       -10.0390   -3.0193   55.7183 C.ar    1  ZINC000643274279   -0.1400
     27 C27        -9.9794   -2.8532   57.0943 C.ar    1  ZINC000643274279    0.1100
     28 O28       -10.1803   -3.9157   57.9174 O.3     1  ZINC000643274279   -0.5000
     29 C29        -9.7140   -1.6008   57.6286 C.ar    1  ZINC000643274279   -0.1400
     30 C30        -9.5049   -0.5234   56.7897 C.ar    1  ZINC000643274279   -0.0900
     31 H31       -13.0636    1.9749   51.9965 H       1  ZINC000643274279    0.4200
     32 H32       -12.7283    2.7524   49.4035 H       1  ZINC000643274279    0.1400
     33 H33       -13.9078    2.5391   47.2524 H       1  ZINC000643274279    0.1400
     34 H34       -16.8188    0.6023   46.7646 H       1  ZINC000643274279    0.0800
     35 H35       -15.5823    1.5910   45.9494 H       1  ZINC000643274279    0.0800
     36 H36       -15.4397   -0.3531   44.6991 H       1  ZINC000643274279    0.0800
     37 H37       -14.2284   -0.6905   45.9519 H       1  ZINC000643274279    0.0700
     38 H38       -17.1263   -1.5501   46.1482 H       1  ZINC000643274279    0.0700
     39 H39       -15.8598   -2.5634   45.4451 H       1  ZINC000643274279    0.0800
     40 H40       -16.2434   -3.2300   47.7250 H       1  ZINC000643274279    0.0900
     41 H41       -14.6389   -2.4745   47.6031 H       1  ZINC000643274279    0.0900
     42 H42       -14.6961   -0.7580   50.8542 H       1  ZINC000643274279    0.1300
     43 H43        -9.0756   -0.7642   51.8613 H       1  ZINC000643274279    0.0800
     44 H44        -9.7241    0.7994   51.2786 H       1  ZINC000643274279    0.1000
     45 H45        -7.1217    0.6305   51.9962 H       1  ZINC000643274279    0.0900
     46 H46        -8.0762    2.0649   52.5021 H       1  ZINC000643274279    0.0800
     47 H47        -7.4152   -0.4577   54.1242 H       1  ZINC000643274279    0.0800
     48 H48        -7.3117    1.2574   54.6409 H       1  ZINC000643274279    0.0900
     49 H49        -9.8803   -2.0666   53.8124 H       1  ZINC000643274279    0.1200
     50 H50       -10.2459   -3.9933   55.2999 H       1  ZINC000643274279    0.1300
     51 H51       -10.1182   -3.7016   58.8584 H       1  ZINC000643274279    0.3900
     52 H52        -9.6674   -1.4689   58.6995 H       1  ZINC000643274279    0.1300
     53 H53        -9.2979    0.4517   57.2051 H       1  ZINC000643274279    0.1300
@<TRIPOS>BOND
     1     1     2    2
     2     2     3   am
     3     2    16    1
     4     3     4    1
     5     3    31    1
     6     4    15   ar
     7     4     5   ar
     8     5     6   ar
     9     5    32    1
    10     6     7   ar
    11     6    33    1
    12     7    14   ar
    13     7     8    1
    14     8     9    1
    15     8    34    1
    16     8    35    1
    17     9    10    1
    18     9    36    1
    19     9    37    1
    20    10    11    1
    21    10    38    1
    22    10    39    1
    23    11    12    1
    24    11    40    1
    25    11    41    1
    26    12    13    2
    27    12    14    1
    28    14    15   ar
    29    15    42    1
    30    16    17    2
    31    16    18   am
    32    18    22    1
    33    18    19    1
    34    19    20    1
    35    19    43    1
    36    19    44    1
    37    20    21    1
    38    20    45    1
    39    20    46    1
    40    21    22    1
    41    21    47    1
    42    21    48    1
    43    22    23    1
    44    22    24    1
    45    24    30   ar
    46    24    25   ar
    47    25    26   ar
    48    25    49    1
    49    26    27   ar
    50    26    50    1
    51    27    28    1
    52    27    29   ar
    53    28    51    1
    54    29    30   ar
    55    29    52    1
    56    30    53    1
@<TRIPOS>SUBSTRUCTURE
     1 ZINC000643274279        1 TEMP              0 ****  ****    0 ROOT


##########                                Name:    ZINC000281257088
##########                DOCK_Rotatable_Bonds:                   8
##########                         Heavy_Atoms:                  27
##########                    Molecular_Weight:             395.541
##########                DOCK_Rotatable_Bonds:                   8
##########                       Formal_Charge:          -0.0200005
##########                     HBond_Acceptors:                   7
##########                        HBond_Donors:                   1
##########                         Heavy_Atoms:                  27
##########                          Grid_Score:          -28.853827
##########                     Grid_vdw_energy:          -28.570086
##########                      Grid_es_energy:           -0.283740
##########           Internal_energy_repulsive:           22.092236

@<TRIPOS>MOLECULE
ZINC000281257088
 57 58 1 0 0
SMALL
USER_CHARGES


@<TRIPOS>ATOM
      1 C1        -13.4929    1.2224   53.9443 C.3     1  ZINC000281257088   -0.0700
      2 C2        -12.1952    0.4564   53.9579 C.2     1  ZINC000281257088    0.1000
      3 N3        -11.4147    0.2512   52.9281 N.2     1  ZINC000281257088   -0.3000
      4 N4        -10.3134   -0.5010   53.3567 N.pl3   1  ZINC000281257088   -0.3700
      5 C5         -9.1980   -0.9500   52.5196 C.3     1  ZINC000281257088    0.1500
      6 C6         -7.9973   -0.0257   52.7309 C.3     1  ZINC000281257088   -0.6400
      7 S7         -6.7870   -0.2943   51.4067 S.o2    1  ZINC000281257088    2.4300
      8 C8         -5.6090    1.0543   51.6965 C.3     1  ZINC000281257088   -0.6500
      9 O9         -6.1266   -1.5305   51.6408 O.2     1  ZINC000281257088   -0.9300
     10 O10        -7.4272   -0.0754   50.1570 O.2     1  ZINC000281257088   -0.9300
     11 C11       -10.4612   -0.7388   54.6768 C.2     1  ZINC000281257088    0.0900
     12 C12        -9.5096   -1.5129   55.5522 C.3     1  ZINC000281257088   -0.1000
     13 C13       -11.6142   -0.1528   55.0749 C.2     1  ZINC000281257088   -0.2300
     14 C14       -12.1771   -0.1627   56.4727 C.3     1  ZINC000281257088    0.1400
     15 N15       -13.1357   -1.2676   56.6068 N.3     1  ZINC000281257088   -0.6700
     16 C16       -13.7726   -1.2543   57.9305 C.3     1  ZINC000281257088    0.1400
     17 H17       -14.1698   -0.2595   58.1326 H       1  ZINC000281257088    0.0500
     18 C18       -12.7537   -1.6114   58.9819 C.ar    1  ZINC000281257088   -0.0800
     19 C19       -12.7803   -0.9807   60.2118 C.ar    1  ZINC000281257088   -0.0600
     20 C20       -11.8464   -1.3075   61.1768 C.ar    1  ZINC000281257088   -0.1600
     21 C21       -10.8844   -2.2672   60.9116 C.ar    1  ZINC000281257088    0.1000
     22 F22        -9.9714   -2.5878   61.8543 F       1  ZINC000281257088   -0.1400
     23 C23       -10.8592   -2.8986   59.6796 C.ar    1  ZINC000281257088   -0.1600
     24 C24       -11.7969   -2.5737   58.7179 C.ar    1  ZINC000281257088   -0.0900
     25 C25       -14.9129   -2.2740   57.9581 C.3     1  ZINC000281257088   -0.0600
     26 C26       -15.5432   -2.2966   59.3520 C.3     1  ZINC000281257088   -0.1400
     27 C27       -15.9721   -1.8829   56.9256 C.3     1  ZINC000281257088   -0.1400
     28 C28       -14.3635   -3.6625   57.6244 C.3     1  ZINC000281257088   -0.1500
     29 H29       -13.2959    2.2747   54.1491 H       1  ZINC000281257088    0.0800
     30 H30       -13.9626    1.1243   52.9656 H       1  ZINC000281257088    0.0700
     31 H31       -14.1592    0.8221   54.7086 H       1  ZINC000281257088    0.0800
     32 H32        -8.9249   -1.9689   52.7942 H       1  ZINC000281257088    0.1100
     33 H33        -9.4968   -0.9238   51.4717 H       1  ZINC000281257088    0.1100
     34 H34        -8.3303    1.0121   52.7138 H       1  ZINC000281257088    0.1400
     35 H35        -7.5362   -0.2434   53.6942 H       1  ZINC000281257088    0.1400
     36 H36        -5.1808    0.9546   52.6939 H       1  ZINC000281257088    0.1300
     37 H37        -4.8132    1.0076   50.9531 H       1  ZINC000281257088    0.1300
     38 H38        -6.1250    2.0111   51.6167 H       1  ZINC000281257088    0.1300
     39 H39        -8.7708   -0.8327   55.9761 H       1  ZINC000281257088    0.0800
     40 H40       -10.0656   -1.9931   56.3574 H       1  ZINC000281257088    0.0900
     41 H41        -9.0041   -2.2728   54.9562 H       1  ZINC000281257088    0.0700
     42 H42       -11.3668   -0.2956   57.1897 H       1  ZINC000281257088    0.0800
     43 H43       -12.6830    0.7830   56.6674 H       1  ZINC000281257088    0.0300
     44 H44       -13.8271   -1.2376   55.8726 H       1  ZINC000281257088    0.3400
     45 H45       -13.5308   -0.2321   60.4184 H       1  ZINC000281257088    0.1400
     46 H46       -11.8670   -0.8140   62.1373 H       1  ZINC000281257088    0.1300
     47 H47       -10.1090   -3.6472   59.4715 H       1  ZINC000281257088    0.1300
     48 H48       -11.7776   -3.0663   57.7569 H       1  ZINC000281257088    0.1300
     49 H49       -15.9346   -1.3075   59.5898 H       1  ZINC000281257088    0.0600
     50 H50       -16.3556   -3.0231   59.3717 H       1  ZINC000281257088    0.0500
     51 H51       -14.7887   -2.5752   60.0876 H       1  ZINC000281257088    0.0600
     52 H52       -15.5229   -1.8668   55.9326 H       1  ZINC000281257088    0.0500
     53 H53       -16.7844   -2.6095   56.9453 H       1  ZINC000281257088    0.0600
     54 H54       -16.3634   -0.8938   57.1635 H       1  ZINC000281257088    0.0600
     55 H55       -13.6664   -3.9740   58.4022 H       1  ZINC000281257088    0.0500
     56 H56       -15.1866   -4.3748   57.5674 H       1  ZINC000281257088    0.0600
     57 H57       -13.8461   -3.6276   56.6655 H       1  ZINC000281257088    0.0600
@<TRIPOS>BOND
     1     1     2    1
     2     1    29    1
     3     1    30    1
     4     1    31    1
     5     2    13    1
     6     2     3    2
     7     3     4    1
     8     4     5    1
     9     4    11    1
    10     5     6    1
    11     5    32    1
    12     5    33    1
    13     6     7    1
    14     6    34    1
    15     6    35    1
    16     7     8    1
    17     7     9    2
    18     7    10    2
    19     8    36    1
    20     8    37    1
    21     8    38    1
    22    11    12    1
    23    11    13    2
    24    12    39    1
    25    12    40    1
    26    12    41    1
    27    13    14    1
    28    14    15    1
    29    14    42    1
    30    14    43    1
    31    15    16    1
    32    15    44    1
    33    16    17    1
    34    16    18    1
    35    16    25    1
    36    18    24   ar
    37    18    19   ar
    38    19    20   ar
    39    19    45    1
    40    20    21   ar
    41    20    46    1
    42    21    22    1
    43    21    23   ar
    44    23    24   ar
    45    23    47    1
    46    24    48    1
    47    25    26    1
    48    25    27    1
    49    25    28    1
    50    26    49    1
    51    26    50    1
    52    26    51    1
    53    27    52    1
    54    27    53    1
    55    27    54    1
    56    28    55    1
    57    28    56    1
    58    28    57    1
@<TRIPOS>SUBSTRUCTURE
     1 ZINC000281257088        1 TEMP              0 ****  ****    0 ROOT


##########                                Name:    ZINC000271662144
##########                DOCK_Rotatable_Bonds:                   8
##########                         Heavy_Atoms:                  26
##########                    Molecular_Weight:             390.402
##########                DOCK_Rotatable_Bonds:                   8
##########                       Formal_Charge:          0.00999944
##########                     HBond_Acceptors:                   9
##########                        HBond_Donors:                   3
##########                         Heavy_Atoms:                  26
##########                          Grid_Score:          -28.826649
##########                     Grid_vdw_energy:          -27.376413
##########                      Grid_es_energy:           -1.450235
##########           Internal_energy_repulsive:           35.566307

@<TRIPOS>MOLECULE
ZINC000271662144
 44 45 1 0 0
SMALL
USER_CHARGES


@<TRIPOS>ATOM
      1 C1          1.7034    1.7420   49.9973 C.3     1  ZINC000271662144   -0.1400
      2 C2          0.2893    2.0515   49.5019 C.3     1  ZINC000271662144    0.1200
      3 H3          0.2973    2.9859   48.9408 H       1  ZINC000271662144    0.0600
      4 N4         -0.6155    2.1788   50.6522 N.3     1  ZINC000271662144   -0.6700
      5 C5         -0.5293    3.5207   51.2438 C.3     1  ZINC000271662144    0.1300
      6 H6          0.3050    4.0617   50.7971 H       1  ZINC000271662144    0.1100
      7 C7         -1.8305    4.2800   50.9777 C.3     1  ZINC000271662144   -0.2000
      8 C8         -2.8663    3.3240   50.3825 C.3     1  ZINC000271662144    0.4600
      9 F9         -2.4502    2.9192   49.1096 F       1  ZINC000271662144   -0.1800
     10 F10        -2.9956    2.2029   51.2093 F       1  ZINC000271662144   -0.1800
     11 F11        -4.1003    3.9759   50.2843 F       1  ZINC000271662144   -0.1700
     12 C12        -0.3123    3.4012   52.7302 C.ar    1  ZINC000271662144   -0.0900
     13 C13        -1.3859    3.1631   53.5681 C.ar    1  ZINC000271662144   -0.0600
     14 C14        -1.1882    3.0533   54.9314 C.ar    1  ZINC000271662144   -0.1600
     15 C15         0.0859    3.1816   55.4581 C.ar    1  ZINC000271662144    0.1000
     16 F16         0.2804    3.0741   56.7907 F       1  ZINC000271662144   -0.1400
     17 C17         1.1605    3.4196   54.6180 C.ar    1  ZINC000271662144   -0.1500
     18 C18         0.9609    3.5242   53.2545 C.ar    1  ZINC000271662144   -0.0700
     19 C19        -0.1863    0.9338   48.6100 C.ar    1  ZINC000271662144   -0.1100
     20 C20        -0.1616   -0.3712   49.0645 C.ar    1  ZINC000271662144   -0.0400
     21 C21        -0.5980   -1.3965   48.2462 C.ar    1  ZINC000271662144   -0.1400
     22 C22        -1.0594   -1.1166   46.9738 C.ar    1  ZINC000271662144   -0.0200
     23 C23        -1.0849    0.1889   46.5193 C.ar    1  ZINC000271662144   -0.6800
     24 S24        -1.6726    0.5458   44.8970 S.o2    1  ZINC000271662144    2.7000
     25 N25        -2.7320    1.8119   45.0270 N.am    1  ZINC000271662144   -1.2500
     26 O26        -0.5562    1.0303   44.1634 O.2     1  ZINC000271662144   -0.9600
     27 O27        -2.4398   -0.5794   44.4916 O.2     1  ZINC000271662144   -0.9600
     28 C28        -0.6527    1.2144   47.3390 C.ar    1  ZINC000271662144   -0.0100
     29 H29         2.0475    2.5505   50.6424 H       1  ZINC000271662144    0.0600
     30 H30         1.6955    0.8076   50.5585 H       1  ZINC000271662144    0.0700
     31 H31         2.3749    1.6475   49.1437 H       1  ZINC000271662144    0.0600
     32 H32        -1.5651    1.9590   50.3913 H       1  ZINC000271662144    0.3500
     33 H33        -2.2101    4.6898   51.9137 H       1  ZINC000271662144    0.1100
     34 H34        -1.6404    5.0922   50.2761 H       1  ZINC000271662144    0.1200
     35 H35        -2.3796    3.0630   53.1570 H       1  ZINC000271662144    0.1300
     36 H36        -2.0270    2.8680   55.5857 H       1  ZINC000271662144    0.1400
     37 H37         2.1546    3.5202   55.0277 H       1  ZINC000271662144    0.1400
     38 H38         1.7991    3.7096   52.5990 H       1  ZINC000271662144    0.1300
     39 H39         0.1989   -0.5900   50.0587 H       1  ZINC000271662144    0.1400
     40 H40        -0.5781   -2.4165   48.6011 H       1  ZINC000271662144    0.1400
     41 H41        -1.3996   -1.9177   46.3342 H       1  ZINC000271662144    0.1400
     42 H42        -2.4305    2.6617   45.3847 H       1  ZINC000271662144    0.4200
     43 H43        -3.6538    1.7039   44.7455 H       1  ZINC000271662144    0.4200
     44 H44        -0.6727    2.2343   46.9842 H       1  ZINC000271662144    0.1400
@<TRIPOS>BOND
     1     1     2    1
     2     1    29    1
     3     1    30    1
     4     1    31    1
     5     2     3    1
     6     2     4    1
     7     2    19    1
     8     4     5    1
     9     4    32    1
    10     5     6    1
    11     5     7    1
    12     5    12    1
    13     7     8    1
    14     7    33    1
    15     7    34    1
    16     8     9    1
    17     8    10    1
    18     8    11    1
    19    12    18   ar
    20    12    13   ar
    21    13    14   ar
    22    13    35    1
    23    14    15   ar
    24    14    36    1
    25    15    16    1
    26    15    17   ar
    27    17    18   ar
    28    17    37    1
    29    18    38    1
    30    19    28   ar
    31    19    20   ar
    32    20    21   ar
    33    20    39    1
    34    21    22   ar
    35    21    40    1
    36    22    23   ar
    37    22    41    1
    38    23    24    1
    39    23    28   ar
    40    24    25   am
    41    24    26    2
    42    24    27    2
    43    25    42    1
    44    25    43    1
    45    28    44    1
@<TRIPOS>SUBSTRUCTURE
     1 ZINC000271662144        1 TEMP              0 ****  ****    0 ROOT


##########                                Name:    ZINC000432833246
##########                DOCK_Rotatable_Bonds:                   5
##########                         Heavy_Atoms:                  25
##########                    Molecular_Weight:             400.318
##########                DOCK_Rotatable_Bonds:                   5
##########                       Formal_Charge:        -3.20375e-07
##########                     HBond_Acceptors:                   4
##########                        HBond_Donors:                   1
##########                         Heavy_Atoms:                  25
##########                          Grid_Score:          -28.826204
##########                     Grid_vdw_energy:          -29.322952
##########                      Grid_es_energy:            0.496749
##########           Internal_energy_repulsive:           10.976228

@<TRIPOS>MOLECULE
ZINC000432833246
 47 51 1 0 0
SMALL
USER_CHARGES


@<TRIPOS>ATOM
      1 O1         -2.2877   -0.3189   44.4747 O.2     1  ZINC000432833246   -0.5200
      2 C2         -1.4608   -0.2400   45.3585 C.2     1  ZINC000432833246    0.5200
      3 C3         -1.6104   -0.8361   46.7409 C.3     1  ZINC000432833246   -0.1500
      4 C4         -0.1740   -0.8313   47.3133 C.3     1  ZINC000432833246   -0.1100
      5 H5          0.3242   -1.7822   47.1244 H       1  ZINC000432833246    0.1000
      6 C6         -0.1817   -0.5079   48.8087 C.3     1  ZINC000432833246    0.1300
      7 N7         -0.8311    0.7874   49.0249 N.pl3   1  ZINC000432833246   -0.7200
      8 C8         -0.6725    1.4495   50.2329 C.ar    1  ZINC000432833246    0.2800
      9 C9         -1.7933    1.8791   50.9826 C.ar    1  ZINC000432833246   -0.1500
     10 C10        -3.1018    1.6517   50.5339 C.ar    1  ZINC000432833246   -0.0700
     11 C11        -4.1555    2.0801   51.2840 C.ar    1  ZINC000432833246   -0.1300
     12 C12        -3.9496    2.7420   52.4918 C.ar    1  ZINC000432833246   -0.0600
     13 C13        -2.6914    2.9791   52.9567 C.ar    1  ZINC000432833246   -0.0800
     14 Br14       -2.4409    3.8798   54.6005 Br      1  ZINC000432833246   -0.0300
     15 C15        -1.5794    2.5509   52.2096 C.ar    1  ZINC000432833246    0.1900
     16 N16        -0.3328    2.7700   52.6427 N.ar    1  ZINC000432833246   -0.5000
     17 C17         0.7148    2.3760   51.9565 C.ar    1  ZINC000432833246    0.2400
     18 C18         2.0927    2.6537   52.4997 C.3     1  ZINC000432833246   -0.1100
     19 C19         2.7181    4.0125   52.1782 C.3     1  ZINC000432833246   -0.1700
     20 C20         2.2199    3.7154   53.5940 C.3     1  ZINC000432833246   -0.1600
     21 C21         0.5888    1.7064   50.7472 C.ar    1  ZINC000432833246   -0.2700
     22 C22         0.4839    0.3080   46.5038 C.3     1  ZINC000432833246    0.1100
     23 N23        -0.2756    0.3848   45.2503 N.am    1  ZINC000432833246   -0.5900
     24 C24         0.1938    1.0631   44.0396 C.3     1  ZINC000432833246    0.0800
     25 C25         1.0314    2.3307   44.2196 C.3     1  ZINC000432833246   -0.1900
     26 C26         1.6961    1.0347   43.7513 C.3     1  ZINC000432833246   -0.1900
     27 H27        -2.2673   -0.2186   47.3535 H       1  ZINC000432833246    0.1100
     28 H28        -1.9925   -1.8549   46.6776 H       1  ZINC000432833246    0.1000
     29 H29        -0.7292   -1.2828   49.3452 H       1  ZINC000432833246    0.0800
     30 H30         0.8435   -0.4663   49.1767 H       1  ZINC000432833246    0.0700
     31 H31        -1.3720    1.1819   48.3230 H       1  ZINC000432833246    0.4000
     32 H32        -3.2738    1.1400   49.5985 H       1  ZINC000432833246    0.1300
     33 H33        -5.1633    1.9043   50.9374 H       1  ZINC000432833246    0.1400
     34 H34        -4.8005    3.0729   53.0685 H       1  ZINC000432833246    0.1400
     35 H35         2.7590    1.7928   52.5538 H       1  ZINC000432833246    0.1300
     36 H36         3.7962    4.0457   52.0206 H       1  ZINC000432833246    0.1000
     37 H37         2.1329    4.7056   51.5738 H       1  ZINC000432833246    0.1000
     38 H38         1.3070    4.2130   53.9210 H       1  ZINC000432833246    0.0900
     39 H39         2.9702    3.5531   54.3678 H       1  ZINC000432833246    0.1000
     40 H40         1.4694    1.3943   50.2057 H       1  ZINC000432833246    0.1400
     41 H41         0.4133    1.2485   47.0502 H       1  ZINC000432833246    0.0800
     42 H42         1.5269    0.0692   46.2958 H       1  ZINC000432833246    0.0900
     43 H43        -0.4832    1.0238   43.1862 H       1  ZINC000432833246    0.1300
     44 H44         0.9054    3.1258   43.4848 H       1  ZINC000432833246    0.1000
     45 H45         1.2331    2.6601   45.2389 H       1  ZINC000432833246    0.1300
     46 H46         2.3353    0.5114   44.4625 H       1  ZINC000432833246    0.0900
     47 H47         2.0075    0.9772   42.7083 H       1  ZINC000432833246    0.1000
@<TRIPOS>BOND
     1     1     2    2
     2     2    23   am
     3     2     3    1
     4     3     4    1
     5     3    27    1
     6     3    28    1
     7     4     5    1
     8     4     6    1
     9     4    22    1
    10     6     7    1
    11     6    29    1
    12     6    30    1
    13     7     8    1
    14     7    31    1
    15     8    21   ar
    16     8     9   ar
    17     9    15   ar
    18     9    10   ar
    19    10    11   ar
    20    10    32    1
    21    11    12   ar
    22    11    33    1
    23    12    13   ar
    24    12    34    1
    25    13    14    1
    26    13    15   ar
    27    15    16   ar
    28    16    17   ar
    29    17    18    1
    30    17    21   ar
    31    18    20    1
    32    18    19    1
    33    18    35    1
    34    19    20    1
    35    19    36    1
    36    19    37    1
    37    20    38    1
    38    20    39    1
    39    21    40    1
    40    22    23    1
    41    22    41    1
    42    22    42    1
    43    23    24    1
    44    24    26    1
    45    24    25    1
    46    24    43    1
    47    25    26    1
    48    25    44    1
    49    25    45    1
    50    26    46    1
    51    26    47    1
@<TRIPOS>SUBSTRUCTURE
     1 ZINC000432833246        1 TEMP              0 ****  ****    0 ROOT


##########                                Name:    ZINC000750807956
##########                DOCK_Rotatable_Bonds:                  11
##########                         Heavy_Atoms:                  26
##########                    Molecular_Weight:             368.473
##########                DOCK_Rotatable_Bonds:                  11
##########                       Formal_Charge:        -8.12113e-07
##########                     HBond_Acceptors:                   7
##########                        HBond_Donors:                   1
##########                         Heavy_Atoms:                  26
##########                          Grid_Score:          -28.816000
##########                     Grid_vdw_energy:          -27.785341
##########                      Grid_es_energy:           -1.030659
##########           Internal_energy_repulsive:           72.768295

@<TRIPOS>MOLECULE
ZINC000750807956
 58 59 1 0 0
SMALL
USER_CHARGES


@<TRIPOS>ATOM
      1 C1         -6.2494   -0.7617   51.8814 C.3     1  ZINC000750807956   -0.1500
      2 C2         -7.6608   -0.9927   51.3377 C.3     1  ZINC000750807956    0.0700
      3 O3         -8.6349   -0.6489   52.3580 O.3     1  ZINC000750807956   -0.3600
      4 C4         -9.9297   -0.7095   52.0095 C.2     1  ZINC000750807956    0.4800
      5 O5        -10.3959   -1.7443   51.5951 O.2     1  ZINC000750807956   -0.4900
      6 C6        -10.8019    0.5130   52.1349 C.3     1  ZINC000750807956    0.1600
      7 H7        -11.6517    0.4266   51.4578 H       1  ZINC000750807956    0.1000
      8 C8         -9.9888    1.7623   51.7815 C.3     1  ZINC000750807956   -0.1300
      9 C9        -10.8367    3.0091   52.0442 C.3     1  ZINC000750807956   -0.1200
     10 C10       -11.2035    3.0752   53.5285 C.3     1  ZINC000750807956   -0.1400
     11 C11       -12.0304    1.8407   53.9016 C.3     1  ZINC000750807956    0.1100
     12 N12       -11.2841    0.6344   53.5174 N.am    1  ZINC000750807956   -0.6100
     13 C13       -11.0424   -0.3392   54.4174 C.2     1  ZINC000750807956    0.5100
     14 O14       -10.4253   -1.3300   54.0880 O.2     1  ZINC000750807956   -0.5000
     15 C15       -11.5388   -0.1968   55.8332 C.3     1  ZINC000750807956   -0.1400
     16 C16       -10.9775   -1.3354   56.6874 C.3     1  ZINC000750807956    0.2100
     17 H17       -10.8179   -2.2139   56.0623 H       1  ZINC000750807956    0.1000
     18 N18       -11.9284   -1.6607   57.7533 N.am    1  ZINC000750807956   -0.7000
     19 C19       -12.5553   -2.8537   57.7560 C.2     1  ZINC000750807956    0.6600
     20 O20       -12.3308   -3.6601   56.8752 O.2     1  ZINC000750807956   -0.5600
     21 O21       -13.4304   -3.1520   58.7347 O.3     1  ZINC000750807956   -0.3700
     22 C22       -14.7564   -2.5688   58.6338 C.3     1  ZINC000750807956    0.1400
     23 C23       -15.1393   -2.4247   57.1595 C.3     1  ZINC000750807956   -0.1800
     24 C24       -15.7677   -3.4764   59.3370 C.3     1  ZINC000750807956   -0.1400
     25 C25       -14.7593   -1.1908   59.2985 C.3     1  ZINC000750807956   -0.1800
     26 C26        -9.6472   -0.9009   57.3058 C.3     1  ZINC000750807956   -0.1800
     27 C27        -9.7004   -0.1276   58.6249 C.3     1  ZINC000750807956   -0.1700
     28 C28        -9.2185   -1.5796   58.6082 C.3     1  ZINC000750807956   -0.1800
     29 H29        -6.0916   -1.3873   52.7600 H       1  ZINC000750807956    0.0600
     30 H30        -5.5182   -1.0198   51.1155 H       1  ZINC000750807956    0.0800
     31 H31        -6.1330    0.2867   52.1562 H       1  ZINC000750807956    0.0700
     32 H32        -7.8185   -0.3672   50.4591 H       1  ZINC000750807956    0.0700
     33 H33        -7.7771   -2.0411   51.0629 H       1  ZINC000750807956    0.0600
     34 H34        -9.0899    1.7975   52.3970 H       1  ZINC000750807956    0.0800
     35 H35        -9.7084    1.7283   50.7288 H       1  ZINC000750807956    0.0800
     36 H36       -10.2692    3.8985   51.7704 H       1  ZINC000750807956    0.0800
     37 H37       -11.7473    2.9614   51.4469 H       1  ZINC000750807956    0.0700
     38 H38       -10.2931    3.0980   54.1276 H       1  ZINC000750807956    0.0700
     39 H39       -11.7876    3.9755   53.7192 H       1  ZINC000750807956    0.0800
     40 H40       -12.2101    1.8326   54.9766 H       1  ZINC000750807956    0.0900
     41 H41       -12.9818    1.8639   53.3702 H       1  ZINC000750807956    0.0800
     42 H42       -11.2087    0.7591   56.2395 H       1  ZINC000750807956    0.1200
     43 H43       -12.6280   -0.2388   55.8421 H       1  ZINC000750807956    0.1100
     44 H44       -12.1068   -1.0174   58.4571 H       1  ZINC000750807956    0.4000
     45 H45       -15.1372   -3.4064   56.6859 H       1  ZINC000750807956    0.0600
     46 H46       -16.1346   -1.9868   57.0838 H       1  ZINC000750807956    0.0700
     47 H47       -14.4189   -1.7781   56.6585 H       1  ZINC000750807956    0.0900
     48 H48       -15.4949   -3.5790   60.3873 H       1  ZINC000750807956    0.0700
     49 H49       -16.7630   -3.0386   59.2613 H       1  ZINC000750807956    0.0800
     50 H50       -15.7656   -4.4582   58.8634 H       1  ZINC000750807956    0.0700
     51 H51       -14.0388   -0.5441   58.7975 H       1  ZINC000750807956    0.0900
     52 H52       -15.7546   -0.7529   59.2228 H       1  ZINC000750807956    0.0700
     53 H53       -14.4865   -1.2934   60.3488 H       1  ZINC000750807956    0.0600
     54 H54        -8.8642   -0.6331   56.5963 H       1  ZINC000750807956    0.1100
     55 H55        -8.9525    0.6492   58.7835 H       1  ZINC000750807956    0.0900
     56 H56       -10.6833    0.0715   59.0522 H       1  ZINC000750807956    0.0900
     57 H57        -9.8842   -2.3357   59.0245 H       1  ZINC000750807956    0.1200
     58 H58        -8.1534   -1.7581   58.7558 H       1  ZINC000750807956    0.0900
@<TRIPOS>BOND
     1     1     2    1
     2     1    29    1
     3     1    30    1
     4     1    31    1
     5     2     3    1
     6     2    32    1
     7     2    33    1
     8     3     4    1
     9     4     5    2
    10     4     6    1
    11     6     7    1
    12     6    12    1
    13     6     8    1
    14     8     9    1
    15     8    34    1
    16     8    35    1
    17     9    10    1
    18     9    36    1
    19     9    37    1
    20    10    11    1
    21    10    38    1
    22    10    39    1
    23    11    12    1
    24    11    40    1
    25    11    41    1
    26    12    13   am
    27    13    14    2
    28    13    15    1
    29    15    16    1
    30    15    42    1
    31    15    43    1
    32    16    17    1
    33    16    18    1
    34    16    26    1
    35    18    19   am
    36    18    44    1
    37    19    20    2
    38    19    21    1
    39    21    22    1
    40    22    23    1
    41    22    24    1
    42    22    25    1
    43    23    45    1
    44    23    46    1
    45    23    47    1
    46    24    48    1
    47    24    49    1
    48    24    50    1
    49    25    51    1
    50    25    52    1
    51    25    53    1
    52    26    28    1
    53    26    27    1
    54    26    54    1
    55    27    28    1
    56    27    55    1
    57    27    56    1
    58    28    57    1
    59    28    58    1
@<TRIPOS>SUBSTRUCTURE
     1 ZINC000750807956        1 TEMP              0 ****  ****    0 ROOT


##########                                Name:    ZINC000603906271
##########                DOCK_Rotatable_Bonds:                   8
##########                         Heavy_Atoms:                  29
##########                    Molecular_Weight:             391.473
##########                DOCK_Rotatable_Bonds:                   8
##########                       Formal_Charge:           0.0499998
##########                     HBond_Acceptors:                   7
##########                        HBond_Donors:                   3
##########                         Heavy_Atoms:                  29
##########                          Grid_Score:          -28.814068
##########                     Grid_vdw_energy:          -28.342375
##########                      Grid_es_energy:           -0.471693
##########           Internal_energy_repulsive:           22.973614

@<TRIPOS>MOLECULE
ZINC000603906271
 54 56 1 0 0
SMALL
USER_CHARGES


@<TRIPOS>ATOM
      1 C1         -8.0659   -1.2349   59.8952 C.3     1  ZINC000603906271   -0.1600
      2 C2         -9.4654   -1.7735   59.5919 C.3     1  ZINC000603906271    0.1300
      3 H3         -9.5428   -2.8024   59.9433 H       1  ZINC000603906271    0.1200
      4 N4        -10.4649   -0.9479   60.2745 N.am    1  ZINC000603906271   -0.7100
      5 C5        -11.6802   -1.4573   60.5576 C.2     1  ZINC000603906271    0.5700
      6 O6        -11.9475   -2.6012   60.2451 O.2     1  ZINC000603906271   -0.5300
      7 C7        -12.6882   -0.6248   61.2479 C.ar    1  ZINC000603906271   -0.1400
      8 C8        -13.9123   -1.1775   61.6279 C.ar    1  ZINC000603906271   -0.0800
      9 C9        -14.8484   -0.3954   62.2721 C.ar    1  ZINC000603906271   -0.1200
     10 C10       -14.5763    0.9343   62.5413 C.ar    1  ZINC000603906271   -0.0400
     11 C11       -15.6038    1.7828   63.2449 C.3     1  ZINC000603906271   -0.0400
     12 C12       -15.2781    1.8444   64.7386 C.3     1  ZINC000603906271   -0.1400
     13 C13       -15.5848    3.1965   62.6601 C.3     1  ZINC000603906271   -0.1500
     14 C14       -16.9918    1.1691   63.0505 C.3     1  ZINC000603906271   -0.1400
     15 C15       -13.3646    1.4882   62.1677 C.ar    1  ZINC000603906271   -0.1300
     16 C16       -12.4178    0.7155   61.5276 C.ar    1  ZINC000603906271   -0.0500
     17 C17        -9.7089   -1.7307   58.1053 C.2     1  ZINC000603906271    0.5100
     18 O18       -10.1150   -2.7175   57.5287 O.2     1  ZINC000603906271   -0.5100
     19 N19        -9.4753   -0.5961   57.4166 N.am    1  ZINC000603906271   -0.6700
     20 C20        -9.7014   -0.5564   56.0361 C.ar    1  ZINC000603906271    0.1300
     21 C21       -10.9996   -0.5988   55.5432 C.ar    1  ZINC000603906271   -0.1200
     22 C22       -11.2268   -0.5598   54.1803 C.ar    1  ZINC000603906271   -0.1000
     23 C23       -10.1653   -0.4791   53.3016 C.ar    1  ZINC000603906271   -0.0900
     24 C24        -8.8595   -0.4366   53.7873 C.ar    1  ZINC000603906271    0.0000
     25 C25        -7.7172   -0.3503   52.8438 C.2     1  ZINC000603906271    0.2700
     26 N26        -7.4075   -1.2450   51.9312 N.2     1  ZINC000603906271   -0.3000
     27 N27        -6.2655   -0.7671   51.2682 N.pl3   1  ZINC000603906271   -0.4800
     28 C28        -5.9567    0.4110   51.8394 C.2     1  ZINC000603906271    0.2700
     29 N29        -6.8339    0.6548   52.7769 N.2     1  ZINC000603906271   -0.5300
     30 C30        -8.6300   -0.4691   55.1598 C.ar    1  ZINC000603906271   -0.0800
     31 H31        -7.9885   -0.2060   59.5439 H       1  ZINC000603906271    0.0700
     32 H32        -7.8898   -1.2659   60.9705 H       1  ZINC000603906271    0.0800
     33 H33        -7.3223   -1.8491   59.3874 H       1  ZINC000603906271    0.0700
     34 H34       -10.2520   -0.0347   60.5226 H       1  ZINC000603906271    0.4100
     35 H35       -14.1263   -2.2150   61.4178 H       1  ZINC000603906271    0.1300
     36 H36       -15.7960   -0.8217   62.5667 H       1  ZINC000603906271    0.1300
     37 H37       -14.2894    2.2817   64.8771 H       1  ZINC000603906271    0.0600
     38 H38       -16.0214    2.4582   65.2476 H       1  ZINC000603906271    0.0600
     39 H39       -15.2917    0.8373   65.1552 H       1  ZINC000603906271    0.0600
     40 H40       -15.8169    3.1526   61.5960 H       1  ZINC000603906271    0.0600
     41 H41       -16.3281    3.8102   63.1691 H       1  ZINC000603906271    0.0600
     42 H42       -14.5961    3.6337   62.7987 H       1  ZINC000603906271    0.0600
     43 H43       -17.0052    0.1619   63.4672 H       1  ZINC000603906271    0.0600
     44 H44       -17.7350    1.7828   63.5594 H       1  ZINC000603906271    0.0600
     45 H45       -17.2238    1.1251   61.9864 H       1  ZINC000603906271    0.0600
     46 H46       -13.1583    2.5266   62.3810 H       1  ZINC000603906271    0.1400
     47 H47       -11.4722    1.1490   61.2368 H       1  ZINC000603906271    0.1400
     48 H48        -9.1506    0.1931   57.8777 H       1  ZINC000603906271    0.4200
     49 H49       -11.8334   -0.6627   56.2266 H       1  ZINC000603906271    0.1300
     50 H50       -12.2378   -0.5930   53.8019 H       1  ZINC000603906271    0.1400
     51 H51       -10.3466   -0.4493   52.2373 H       1  ZINC000603906271    0.1400
     52 H52        -5.7922   -1.2014   50.5414 H       1  ZINC000603906271    0.4400
     53 H53        -5.1286    1.0485   51.5667 H       1  ZINC000603906271    0.2300
     54 H54        -7.6200   -0.4363   55.5410 H       1  ZINC000603906271    0.1500
@<TRIPOS>BOND
     1     1     2    1
     2     1    31    1
     3     1    32    1
     4     1    33    1
     5     2     3    1
     6     2     4    1
     7     2    17    1
     8     4     5   am
     9     4    34    1
    10     5     6    2
    11     5     7    1
    12     7    16   ar
    13     7     8   ar
    14     8     9   ar
    15     8    35    1
    16     9    10   ar
    17     9    36    1
    18    10    11    1
    19    10    15   ar
    20    11    12    1
    21    11    13    1
    22    11    14    1
    23    12    37    1
    24    12    38    1
    25    12    39    1
    26    13    40    1
    27    13    41    1
    28    13    42    1
    29    14    43    1
    30    14    44    1
    31    14    45    1
    32    15    16   ar
    33    15    46    1
    34    16    47    1
    35    17    18    2
    36    17    19   am
    37    19    20    1
    38    19    48    1
    39    20    30   ar
    40    20    21   ar
    41    21    22   ar
    42    21    49    1
    43    22    23   ar
    44    22    50    1
    45    23    24   ar
    46    23    51    1
    47    24    25    1
    48    24    30   ar
    49    25    29    1
    50    25    26    2
    51    26    27    1
    52    27    28    1
    53    27    52    1
    54    28    29    2
    55    28    53    1
    56    30    54    1
@<TRIPOS>SUBSTRUCTURE
     1 ZINC000603906271        1 TEMP              0 ****  ****    0 ROOT


##########                                Name:    ZINC000420486261
##########                DOCK_Rotatable_Bonds:                   7
##########                         Heavy_Atoms:                  26
##########                    Molecular_Weight:             353.378
##########                DOCK_Rotatable_Bonds:                   7
##########                       Formal_Charge:        -2.98023e-08
##########                     HBond_Acceptors:                   7
##########                        HBond_Donors:                   0
##########                         Heavy_Atoms:                  26
##########                          Grid_Score:          -28.767839
##########                     Grid_vdw_energy:          -28.124701
##########                      Grid_es_energy:           -0.643139
##########           Internal_energy_repulsive:            7.367871

@<TRIPOS>MOLECULE
ZINC000420486261
 45 47 1 0 0
SMALL
USER_CHARGES


@<TRIPOS>ATOM
      1 C1        -14.4179   -2.4687   61.3855 C.3     1  ZINC000420486261    0.0400
      2 O2        -13.0363   -2.0299   61.3014 O.3     1  ZINC000420486261   -0.3500
      3 C3        -12.6203   -1.5439   60.1163 C.2     1  ZINC000420486261    0.5100
      4 O4        -13.4280   -1.2978   59.2437 O.2     1  ZINC000420486261   -0.4900
      5 C5        -11.1781   -1.3098   59.8775 C.ar    1  ZINC000420486261   -0.0700
      6 C6        -10.2439   -1.4750   60.9055 C.ar    1  ZINC000420486261   -0.0900
      7 C7         -8.9041   -1.2474   60.6436 C.ar    1  ZINC000420486261    0.1100
      8 N8         -8.4996   -0.8791   59.4473 N.ar    1  ZINC000420486261   -0.4200
      9 C9         -9.3478   -0.7095   58.4405 C.ar    1  ZINC000420486261    0.1900
     10 C10        -8.8373   -0.2945   57.1148 C.2     1  ZINC000420486261    0.2200
     11 N11        -9.0483   -0.9059   55.9655 N.2     1  ZINC000420486261   -0.4300
     12 C12        -8.3941   -0.1720   55.0407 C.2     1  ZINC000420486261    0.2200
     13 C13        -8.3279   -0.4495   53.5851 C.ar    1  ZINC000420486261   -0.0600
     14 C14        -7.1335   -0.2681   52.8920 C.ar    1  ZINC000420486261   -0.0300
     15 C15        -7.0770   -0.5277   51.5376 C.ar    1  ZINC000420486261   -0.1600
     16 C16        -8.2031   -0.9678   50.8647 C.ar    1  ZINC000420486261   -0.0600
     17 C17        -9.3933   -1.1511   51.5424 C.ar    1  ZINC000420486261   -0.2200
     18 C18        -9.4630   -0.8999   52.9036 C.ar    1  ZINC000420486261    0.1700
     19 O19       -10.6319   -1.0798   53.5709 O.3     1  ZINC000420486261   -0.2900
     20 C20       -11.5416    0.0220   53.5945 C.3     1  ZINC000420486261    0.0600
     21 C21       -12.6524   -0.2117   52.5686 C.3     1  ZINC000420486261   -0.0900
     22 C22       -14.0141   -0.1008   53.2571 C.3     1  ZINC000420486261   -0.1500
     23 C23       -12.5535    0.8398   51.4615 C.3     1  ZINC000420486261   -0.1500
     24 N24        -7.8293    0.8299   55.6656 N.2     1  ZINC000420486261   -0.3400
     25 O25        -8.0761    0.7788   56.8519 O.3     1  ZINC000420486261    0.1000
     26 C26       -10.7132   -0.9235   58.6176 C.ar    1  ZINC000420486261   -0.0700
     27 H27       -14.6218   -2.8365   62.3911 H       1  ZINC000420486261    0.1100
     28 H28       -15.0793   -1.6310   61.1639 H       1  ZINC000420486261    0.0700
     29 H29       -14.5898   -3.2679   60.6645 H       1  ZINC000420486261    0.0700
     30 H30       -10.5643   -1.7764   61.8919 H       1  ZINC000420486261    0.1600
     31 H31        -8.1792   -1.3736   61.4341 H       1  ZINC000420486261    0.1800
     32 H32        -6.2526    0.0756   53.4137 H       1  ZINC000420486261    0.1400
     33 H33        -6.1504   -0.3863   51.0010 H       1  ZINC000420486261    0.1300
     34 H34        -8.1518   -1.1685   49.8048 H       1  ZINC000420486261    0.1300
     35 H35       -10.2689   -1.4948   51.0118 H       1  ZINC000420486261    0.1400
     36 H36       -11.9784    0.1112   54.5890 H       1  ZINC000420486261    0.0600
     37 H37       -11.0071    0.9396   53.3487 H       1  ZINC000420486261    0.0600
     38 H38       -12.5438   -1.2062   52.1359 H       1  ZINC000420486261    0.0800
     39 H39       -14.1226    0.8937   53.6898 H       1  ZINC000420486261    0.0600
     40 H40       -14.8054   -0.2674   52.5263 H       1  ZINC000420486261    0.0700
     41 H41       -14.0845   -0.8499   54.0459 H       1  ZINC000420486261    0.0600
     42 H42       -12.6620    1.8342   51.8942 H       1  ZINC000420486261    0.0500
     43 H43       -11.5834    0.7607   50.9710 H       1  ZINC000420486261    0.0600
     44 H44       -13.3449    0.6733   50.7306 H       1  ZINC000420486261    0.0600
     45 H45       -11.4015   -0.7853   57.7970 H       1  ZINC000420486261    0.1600
@<TRIPOS>BOND
     1     1     2    1
     2     1    27    1
     3     1    28    1
     4     1    29    1
     5     2     3    1
     6     3     4    2
     7     3     5    1
     8     5    26   ar
     9     5     6   ar
    10     6     7   ar
    11     6    30    1
    12     7     8   ar
    13     7    31    1
    14     8     9   ar
    15     9    10    1
    16     9    26   ar
    17    10    25    1
    18    10    11    2
    19    11    12    1
    20    12    13    1
    21    12    24    2
    22    13    18   ar
    23    13    14   ar
    24    14    15   ar
    25    14    32    1
    26    15    16   ar
    27    15    33    1
    28    16    17   ar
    29    16    34    1
    30    17    18   ar
    31    17    35    1
    32    18    19    1
    33    19    20    1
    34    20    21    1
    35    20    36    1
    36    20    37    1
    37    21    22    1
    38    21    23    1
    39    21    38    1
    40    22    39    1
    41    22    40    1
    42    22    41    1
    43    23    42    1
    44    23    43    1
    45    23    44    1
    46    24    25    1
    47    26    45    1
@<TRIPOS>SUBSTRUCTURE
     1 ZINC000420486261        1 TEMP              0 ****  ****    0 ROOT


##########                                Name:    ZINC000979274057
##########                DOCK_Rotatable_Bonds:                   6
##########                         Heavy_Atoms:                  24
##########                    Molecular_Weight:              330.39
##########                DOCK_Rotatable_Bonds:                   6
##########                       Formal_Charge:          0.00999946
##########                     HBond_Acceptors:                   8
##########                        HBond_Donors:                   1
##########                         Heavy_Atoms:                  24
##########                          Grid_Score:          -28.763903
##########                     Grid_vdw_energy:          -29.551565
##########                      Grid_es_energy:            0.787663
##########           Internal_energy_repulsive:           12.743806

@<TRIPOS>MOLECULE
ZINC000979274057
 46 48 1 0 0
SMALL
USER_CHARGES


@<TRIPOS>ATOM
      1 C1         -3.8099    4.6157   50.1986 C.3     1  ZINC000979274057   -0.1400
      2 C2         -3.7005    3.0934   50.3039 C.3     1  ZINC000979274057    0.1000
      3 H3         -4.6758    2.6450   50.1139 H       1  ZINC000979274057    0.0600
      4 N4         -3.2476    2.7270   51.6524 N.3     1  ZINC000979274057   -0.6700
      5 C5         -4.3541    2.7956   52.6162 C.3     1  ZINC000979274057    0.1300
      6 C6         -5.3791    1.7433   52.2799 C.ar    1  ZINC000979274057    0.3200
      7 N7         -6.6433    1.9588   52.5843 N.ar    1  ZINC000979274057   -0.5200
      8 C8         -7.5711    1.0578   52.3044 C.ar    1  ZINC000979274057    0.1500
      9 C9         -7.1979   -0.1237   51.6833 C.ar    1  ZINC000979274057   -0.2300
     10 C10        -5.8592   -0.3141   51.3790 C.ar    1  ZINC000979274057    0.1500
     11 N11        -4.9884    0.6343   51.6844 N.ar    1  ZINC000979274057   -0.5000
     12 C12        -2.6941    2.5816   49.2713 C.3     1  ZINC000979274057    0.0800
     13 H13        -1.8415    3.2591   49.2272 H       1  ZINC000979274057    0.0700
     14 C14        -3.3642    2.5116   47.8943 C.3     1  ZINC000979274057    0.0800
     15 N15        -2.4412    1.8442   46.9626 N.am    1  ZINC000979274057   -0.6000
     16 C16        -2.1414    2.3948   45.7695 C.2     1  ZINC000979274057    0.6100
     17 O17        -2.6363    3.4586   45.4492 O.2     1  ZINC000979274057   -0.5400
     18 C18        -1.2143    1.7082   44.8534 C.2     1  ZINC000979274057   -0.0600
     19 C19         0.1483    1.7452   44.9077 C.2     1  ZINC000979274057    0.0400
     20 N20         0.6031    0.9808   43.8872 N.pl3   1  ZINC000979274057   -0.4600
     21 C21         2.0078    0.7288   43.5559 C.3     1  ZINC000979274057    0.0700
     22 C22        -0.4766    0.4888   43.2255 C.2     1  ZINC000979274057    0.1900
     23 N23        -1.5604    0.9185   43.8046 N.2     1  ZINC000979274057   -0.4600
     24 C24        -1.8549    0.5582   47.3720 C.3     1  ZINC000979274057    0.0500
     25 C25        -1.2584    0.7235   48.7745 C.3     1  ZINC000979274057    0.0500
     26 O26        -2.2479    1.2760   49.6457 O.3     1  ZINC000979274057   -0.3600
     27 H27        -4.5269    4.9803   50.9342 H       1  ZINC000979274057    0.0600
     28 H28        -2.8347    5.0641   50.3886 H       1  ZINC000979274057    0.0700
     29 H29        -4.1460    4.8876   49.1980 H       1  ZINC000979274057    0.0600
     30 H30        -2.8222    1.8121   51.6549 H       1  ZINC000979274057    0.3500
     31 H31        -3.9713    2.6217   53.6219 H       1  ZINC000979274057    0.1000
     32 H32        -4.8165    3.7815   52.5690 H       1  ZINC000979274057    0.0600
     33 H33        -8.6052    1.2405   52.5568 H       1  ZINC000979274057    0.1700
     34 H34        -7.9325   -0.8779   51.4426 H       1  ZINC000979274057    0.1500
     35 H35        -5.5318   -1.2225   50.8954 H       1  ZINC000979274057    0.1700
     36 H36        -4.2903    1.9411   47.9653 H       1  ZINC000979274057    0.0700
     37 H37        -3.5795    3.5192   47.5391 H       1  ZINC000979274057    0.1000
     38 H38         0.7492    2.2818   45.6270 H       1  ZINC000979274057    0.1900
     39 H39         2.3537   -0.1567   44.0892 H       1  ZINC000979274057    0.0800
     40 H40         2.1046    0.5674   42.4823 H       1  ZINC000979274057    0.0900
     41 H41         2.6103    1.5883   43.8499 H       1  ZINC000979274057    0.0900
     42 H42        -0.4414   -0.1576   42.3612 H       1  ZINC000979274057    0.2100
     43 H43        -2.6290   -0.2090   47.3904 H       1  ZINC000979274057    0.0700
     44 H44        -1.0708    0.2724   46.6709 H       1  ZINC000979274057    0.1500
     45 H45        -0.9424   -0.2489   49.1527 H       1  ZINC000979274057    0.1100
     46 H46        -0.3999    1.3935   48.7283 H       1  ZINC000979274057    0.0500
@<TRIPOS>BOND
     1     1     2    1
     2     1    27    1
     3     1    28    1
     4     1    29    1
     5     2     3    1
     6     2     4    1
     7     2    12    1
     8     4     5    1
     9     4    30    1
    10     5     6    1
    11     5    31    1
    12     5    32    1
    13     6    11   ar
    14     6     7   ar
    15     7     8   ar
    16     8     9   ar
    17     8    33    1
    18     9    10   ar
    19     9    34    1
    20    10    11   ar
    21    10    35    1
    22    12    13    1
    23    12    26    1
    24    12    14    1
    25    14    15    1
    26    14    36    1
    27    14    37    1
    28    15    16   am
    29    15    24    1
    30    16    17    2
    31    16    18    1
    32    18    23    1
    33    18    19    2
    34    19    20    1
    35    19    38    1
    36    20    21    1
    37    20    22    1
    38    21    39    1
    39    21    40    1
    40    21    41    1
    41    22    23    2
    42    22    42    1
    43    24    25    1
    44    24    43    1
    45    24    44    1
    46    25    26    1
    47    25    45    1
    48    25    46    1
@<TRIPOS>SUBSTRUCTURE
     1 ZINC000979274057        1 TEMP              0 ****  ****    0 ROOT


##########                                Name:    ZINC000455156110
##########                DOCK_Rotatable_Bonds:                   4
##########                         Heavy_Atoms:                  27
##########                    Molecular_Weight:             370.424
##########                DOCK_Rotatable_Bonds:                   4
##########                       Formal_Charge:           0.0100002
##########                     HBond_Acceptors:                   6
##########                        HBond_Donors:                   1
##########                         Heavy_Atoms:                  27
##########                          Grid_Score:          -28.761135
##########                     Grid_vdw_energy:          -29.036356
##########                      Grid_es_energy:            0.275220
##########           Internal_energy_repulsive:           18.282894

@<TRIPOS>MOLECULE
ZINC000455156110
 50 53 1 0 0
SMALL
USER_CHARGES


@<TRIPOS>ATOM
      1 C1         -9.1265    0.2588   55.1803 C.3     1  ZINC000455156110    0.0300
      2 O2         -8.5109    1.5051   54.8487 O.3     1  ZINC000455156110   -0.3100
      3 C3         -7.5768    1.4888   53.8600 C.ar    1  ZINC000455156110    0.0900
      4 C4         -7.2478    0.2950   53.2373 C.ar    1  ZINC000455156110   -0.1600
      5 C5         -6.2992    0.2774   52.2327 C.ar    1  ZINC000455156110   -0.0800
      6 C6         -5.9420   -1.0213   51.5568 C.3     1  ZINC000455156110   -0.1100
      7 C7         -5.6756    1.4554   51.8456 C.ar    1  ZINC000455156110    0.1500
      8 N8         -4.7143    1.4372   50.8261 N.am    1  ZINC000455156110   -0.6700
      9 C9         -3.4836    1.9385   51.0514 C.2     1  ZINC000455156110    0.7200
     10 O10        -3.2074    2.4065   52.1391 O.2     1  ZINC000455156110   -0.5500
     11 N11        -2.5591    1.9210   50.0708 N.am    1  ZINC000455156110   -0.5600
     12 C12        -2.7750    1.3909   48.7206 C.3     1  ZINC000455156110    0.1000
     13 C13        -1.4409    1.5994   47.9938 C.3     1  ZINC000455156110   -0.0200
     14 C14        -0.8650    0.2571   47.5487 C.3     1  ZINC000455156110   -0.1400
     15 C15        -1.7811   -0.3551   46.4844 C.3     1  ZINC000455156110    0.0600
     16 O16        -1.9219    0.5607   45.3965 O.3     1  ZINC000455156110   -0.3800
     17 C17        -2.5172    1.8094   45.7551 C.3     1  ZINC000455156110    0.0600
     18 C18        -1.6329    2.5157   46.7875 C.3     1  ZINC000455156110   -0.1400
     19 C19        -0.5386    2.2498   49.0121 C.ar    1  ZINC000455156110   -0.1300
     20 C20         0.7756    2.6681   48.9303 C.ar    1  ZINC000455156110   -0.0700
     21 C21         1.3905    3.2475   50.0247 C.ar    1  ZINC000455156110   -0.1400
     22 C22         0.6870    3.4083   51.2040 C.ar    1  ZINC000455156110   -0.0900
     23 C23        -0.6244    2.9918   51.2913 C.ar    1  ZINC000455156110   -0.1300
     24 C24        -1.2543    2.4113   50.1895 C.ar    1  ZINC000455156110    0.1600
     25 C25        -6.0048    2.6521   52.4684 C.ar    1  ZINC000455156110   -0.1200
     26 C26        -6.9571    2.6697   53.4703 C.ar    1  ZINC000455156110    0.0900
     27 F27        -7.2785    3.8335   54.0767 F       1  ZINC000455156110   -0.1300
     28 H28        -9.8494    0.4124   55.9816 H       1  ZINC000455156110    0.1000
     29 H29        -9.6358   -0.1396   54.3029 H       1  ZINC000455156110    0.0600
     30 H30        -8.3638   -0.4469   55.5094 H       1  ZINC000455156110    0.0600
     31 H31        -7.7330   -0.6220   53.5377 H       1  ZINC000455156110    0.1400
     32 H32        -6.5924   -1.1736   50.6955 H       1  ZINC000455156110    0.0800
     33 H33        -4.9038   -0.9854   51.2263 H       1  ZINC000455156110    0.0600
     34 H34        -6.0713   -1.8443   52.2597 H       1  ZINC000455156110    0.0800
     35 H35        -4.9346    1.0639   49.9585 H       1  ZINC000455156110    0.4100
     36 H36        -3.0202    0.3298   48.7651 H       1  ZINC000455156110    0.0800
     37 H37        -3.5696    1.9434   48.2194 H       1  ZINC000455156110    0.0900
     38 H38         0.1297    0.4086   47.1295 H       1  ZINC000455156110    0.0800
     39 H39        -0.8020   -0.4142   48.4050 H       1  ZINC000455156110    0.0800
     40 H40        -1.3457   -1.2863   46.1219 H       1  ZINC000455156110    0.1000
     41 H41        -2.7601   -0.5562   46.9196 H       1  ZINC000455156110    0.0500
     42 H42        -2.6116    2.4355   44.8679 H       1  ZINC000455156110    0.1000
     43 H43        -3.5044    1.6323   46.1823 H       1  ZINC000455156110    0.0500
     44 H44        -2.1128    3.4412   47.1058 H       1  ZINC000455156110    0.0800
     45 H45        -0.6634    2.7411   46.3433 H       1  ZINC000455156110    0.0800
     46 H46         1.3244    2.5416   48.0088 H       1  ZINC000455156110    0.1300
     47 H47         2.4179    3.5734   49.9586 H       1  ZINC000455156110    0.1300
     48 H48         1.1663    3.8610   52.0595 H       1  ZINC000455156110    0.1300
     49 H49        -1.1685    3.1196   52.2155 H       1  ZINC000455156110    0.1400
     50 H50        -5.5199    3.5690   52.1677 H       1  ZINC000455156110    0.1700
@<TRIPOS>BOND
     1     1     2    1
     2     1    28    1
     3     1    29    1
     4     1    30    1
     5     2     3    1
     6     3    26   ar
     7     3     4   ar
     8     4     5   ar
     9     4    31    1
    10     5     6    1
    11     5     7   ar
    12     6    32    1
    13     6    33    1
    14     6    34    1
    15     7     8    1
    16     7    25   ar
    17     8     9   am
    18     8    35    1
    19     9    10    2
    20     9    11   am
    21    11    24    1
    22    11    12    1
    23    12    13    1
    24    12    36    1
    25    12    37    1
    26    13    18    1
    27    13    14    1
    28    13    19    1
    29    14    15    1
    30    14    38    1
    31    14    39    1
    32    15    16    1
    33    15    40    1
    34    15    41    1
    35    16    17    1
    36    17    18    1
    37    17    42    1
    38    17    43    1
    39    18    44    1
    40    18    45    1
    41    19    24   ar
    42    19    20   ar
    43    20    21   ar
    44    20    46    1
    45    21    22   ar
    46    21    47    1
    47    22    23   ar
    48    22    48    1
    49    23    24   ar
    50    23    49    1
    51    25    26   ar
    52    25    50    1
    53    26    27    1
@<TRIPOS>SUBSTRUCTURE
     1 ZINC000455156110        1 TEMP              0 ****  ****    0 ROOT


##########                                Name:    ZINC001067560454
##########                DOCK_Rotatable_Bonds:                   4
##########                         Heavy_Atoms:                  25
##########                    Molecular_Weight:             342.444
##########                DOCK_Rotatable_Bonds:                   4
##########                       Formal_Charge:          0.00999971
##########                     HBond_Acceptors:                   7
##########                        HBond_Donors:                   1
##########                         Heavy_Atoms:                  25
##########                          Grid_Score:          -28.740492
##########                     Grid_vdw_energy:          -28.606220
##########                      Grid_es_energy:           -0.134271
##########           Internal_energy_repulsive:           10.861273

@<TRIPOS>MOLECULE
ZINC001067560454
 51 54 1 0 0
SMALL
USER_CHARGES


@<TRIPOS>ATOM
      1 C1         -0.5652   -0.4870   46.6948 C.3     1  ZINC001067560454   -0.1500
      2 C2         -1.4250    0.7751   46.6006 C.3     1  ZINC001067560454    0.1000
      3 H3         -2.4300    0.5064   46.2751 H       1  ZINC001067560454    0.0600
      4 C4         -1.4962    1.4472   47.9736 C.3     1  ZINC001067560454   -0.1200
      5 C5         -2.3408    2.7201   47.8701 C.3     1  ZINC001067560454    0.1400
      6 H6         -3.3575    2.4598   47.5756 H       1  ZINC001067560454    0.0900
      7 N7         -2.3657    3.3980   49.1687 N.am    1  ZINC001067560454   -0.7200
      8 C8         -3.3144    3.0859   50.0736 C.2     1  ZINC001067560454    0.5400
      9 O9         -4.1483    2.2449   49.8126 O.2     1  ZINC001067560454   -0.5300
     10 C10        -3.3389    3.7820   51.4101 C.3     1  ZINC001067560454   -0.1100
     11 C11        -4.3582    4.9216   51.4678 C.3     1  ZINC001067560454   -0.1300
     12 C12        -3.4217    2.8179   52.6053 C.3     1  ZINC001067560454   -0.1200
     13 C13        -1.8842    2.7898   52.5884 C.3     1  ZINC001067560454   -0.1400
     14 C14        -1.9445    4.1760   51.9252 C.3     1  ZINC001067560454   -0.1200
     15 C15        -1.7251    3.6476   46.8189 C.3     1  ZINC001067560454   -0.1200
     16 C16        -1.6472    2.9119   45.4793 C.3     1  ZINC001067560454    0.0600
     17 N17        -0.8282    1.7024   45.6309 N.3     1  ZINC001067560454   -0.4900
     18 C18        -0.6287    1.0822   44.4099 C.ar    1  ZINC001067560454    0.4400
     19 C19         0.6321    1.1039   43.7900 C.ar    1  ZINC001067560454   -0.0800
     20 N20         1.8398    1.6303   44.1054 N.2     1  ZINC001067560454   -0.4700
     21 C21         2.6925    1.3538   43.1619 C.2     1  ZINC001067560454    0.2700
     22 N22         2.0827    0.6309   42.1801 N.pl3   1  ZINC001067560454   -0.4800
     23 C23         2.7104    0.1315   40.9543 C.3     1  ZINC001067560454    0.0800
     24 C24         0.7733    0.4562   42.5509 C.ar    1  ZINC001067560454    0.2800
     25 N25        -0.2813   -0.1487   42.0144 N.ar    1  ZINC001067560454   -0.5200
     26 C26        -1.4439   -0.1435   42.6320 C.ar    1  ZINC001067560454    0.3300
     27 N27        -1.6240    0.4476   43.7989 N.ar    1  ZINC001067560454   -0.5100
     28 H28         0.4399   -0.2185   47.0202 H       1  ZINC001067560454    0.0700
     29 H29        -1.0083   -1.1756   47.4142 H       1  ZINC001067560454    0.0700
     30 H30        -0.5147   -0.9660   45.7169 H       1  ZINC001067560454    0.0500
     31 H31        -1.9534    0.7643   48.6897 H       1  ZINC001067560454    0.0800
     32 H32        -0.4903    1.7039   48.3058 H       1  ZINC001067560454    0.0800
     33 H33        -1.6995    4.0715   49.3770 H       1  ZINC001067560454    0.4000
     34 H34        -5.3248    4.5627   51.1143 H       1  ZINC001067560454    0.0600
     35 H35        -4.4542    5.2715   52.4956 H       1  ZINC001067560454    0.0700
     36 H36        -4.0217    5.7424   50.8345 H       1  ZINC001067560454    0.0600
     37 H37        -3.8403    3.2714   53.5038 H       1  ZINC001067560454    0.0900
     38 H38        -3.8787    1.8588   52.3618 H       1  ZINC001067560454    0.0700
     39 H39        -1.4363    2.8003   53.5820 H       1  ZINC001067560454    0.0700
     40 H40        -1.4687    2.0152   51.9439 H       1  ZINC001067560454    0.0800
     41 H41        -1.2090    4.3132   51.1325 H       1  ZINC001067560454    0.0800
     42 H42        -1.9593    5.0007   52.6377 H       1  ZINC001067560454    0.0900
     43 H43        -2.3458    4.5370   46.7100 H       1  ZINC001067560454    0.0800
     44 H44        -0.7227    3.9390   47.1329 H       1  ZINC001067560454    0.0800
     45 H45        -2.6512    2.6330   45.1592 H       1  ZINC001067560454    0.0700
     46 H46        -1.1961    3.5646   44.7320 H       1  ZINC001067560454    0.0800
     47 H47         3.7301    1.6534   43.1572 H       1  ZINC001067560454    0.2300
     48 H48         3.1194   -0.8627   41.1344 H       1  ZINC001067560454    0.0800
     49 H49         1.9659    0.0797   40.1599 H       1  ZINC001067560454    0.0900
     50 H50         3.5132    0.8060   40.6563 H       1  ZINC001067560454    0.0900
     51 H51        -2.2809   -0.6445   42.1685 H       1  ZINC001067560454    0.2100
@<TRIPOS>BOND
     1     1     2    1
     2     1    28    1
     3     1    29    1
     4     1    30    1
     5     2     3    1
     6     2    17    1
     7     2     4    1
     8     4     5    1
     9     4    31    1
    10     4    32    1
    11     5     6    1
    12     5     7    1
    13     5    15    1
    14     7     8   am
    15     7    33    1
    16     8     9    2
    17     8    10    1
    18    10    14    1
    19    10    11    1
    20    10    12    1
    21    11    34    1
    22    11    35    1
    23    11    36    1
    24    12    13    1
    25    12    37    1
    26    12    38    1
    27    13    14    1
    28    13    39    1
    29    13    40    1
    30    14    41    1
    31    14    42    1
    32    15    16    1
    33    15    43    1
    34    15    44    1
    35    16    17    1
    36    16    45    1
    37    16    46    1
    38    17    18    1
    39    18    27   ar
    40    18    19   ar
    41    19    24   ar
    42    19    20    1
    43    20    21    2
    44    21    22    1
    45    21    47    1
    46    22    23    1
    47    22    24    1
    48    23    48    1
    49    23    49    1
    50    23    50    1
    51    24    25   ar
    52    25    26   ar
    53    26    27   ar
    54    26    51    1
@<TRIPOS>SUBSTRUCTURE
     1 ZINC001067560454        1 TEMP              0 ****  ****    0 ROOT


##########                                Name:    ZINC000465392830
##########                DOCK_Rotatable_Bonds:                   8
##########                         Heavy_Atoms:                  29
##########                    Molecular_Weight:             419.588
##########                DOCK_Rotatable_Bonds:                   8
##########                       Formal_Charge:           0.0199996
##########                     HBond_Acceptors:                   7
##########                        HBond_Donors:                   0
##########                         Heavy_Atoms:                  29
##########                          Grid_Score:          -28.709810
##########                     Grid_vdw_energy:          -27.702301
##########                      Grid_es_energy:           -1.007510
##########           Internal_energy_repulsive:           33.558578

@<TRIPOS>MOLECULE
ZINC000465392830
 62 64 1 0 0
SMALL
USER_CHARGES


@<TRIPOS>ATOM
      1 C1        -12.0211    2.4209   57.0755 C.3     1  ZINC000465392830    0.0400
      2 O2        -11.0577    1.7326   57.9161 O.3     1  ZINC000465392830   -0.3600
      3 C3        -10.4053    0.6941   57.3707 C.2     1  ZINC000465392830    0.4600
      4 O4         -9.6096    0.0673   58.0293 O.2     1  ZINC000465392830   -0.4900
      5 C5        -10.6654    0.3100   55.9368 C.3     1  ZINC000465392830    0.1500
      6 H6        -11.6514    0.6608   55.6323 H       1  ZINC000465392830    0.1100
      7 C7         -9.5841    0.9258   55.0241 C.3     1  ZINC000465392830   -0.1100
      8 C8         -9.3288   -0.1956   53.9826 C.3     1  ZINC000465392830   -0.0900
      9 H9        -10.0740   -0.1673   53.1875 H       1  ZINC000465392830    0.1000
     10 C10        -7.9141   -0.0984   53.4078 C.3     1  ZINC000465392830   -0.0800
     11 C11        -7.7377   -1.1465   52.3073 C.3     1  ZINC000465392830   -0.1200
     12 C12        -6.3231   -1.0495   51.7326 C.3     1  ZINC000465392830   -0.1200
     13 C13        -6.1055    0.3470   51.1465 C.3     1  ZINC000465392830   -0.1200
     14 C14        -6.2819    1.3951   52.2470 C.3     1  ZINC000465392830   -0.1200
     15 C15        -7.6966    1.2980   52.8217 C.3     1  ZINC000465392830   -0.1200
     16 C16        -9.4903   -1.4686   54.8501 C.3     1  ZINC000465392830    0.1000
     17 N17       -10.5865   -1.1506   55.7884 N.am    1  ZINC000465392830   -0.6100
     18 C18       -11.3777   -2.0501   56.4059 C.2     1  ZINC000465392830    0.5400
     19 O19       -11.2191   -3.2357   56.2057 O.2     1  ZINC000465392830   -0.5300
     20 C20       -12.4593   -1.5826   57.3453 C.3     1  ZINC000465392830   -0.1300
     21 C21       -12.9164   -2.7523   58.2194 C.3     1  ZINC000465392830   -0.0600
     22 C22       -13.6394   -2.2218   59.4305 C.ar    1  ZINC000465392830   -0.2000
     23 C23       -15.0221   -2.1228   59.4427 C.ar    1  ZINC000465392830    0.2000
     24 C24       -15.8275   -2.5459   58.2413 C.3     1  ZINC000465392830   -0.1100
     25 N25       -15.6259   -1.6529   60.5215 N.ar    1  ZINC000465392830   -0.5000
     26 C26       -14.9240   -1.2793   61.5821 C.ar    1  ZINC000465392830    0.3000
     27 S27       -15.7694   -0.6590   62.9982 S.3     1  ZINC000465392830    0.0000
     28 C28       -17.0705    0.3055   62.1902 C.3     1  ZINC000465392830   -0.1400
     29 N29       -13.6012   -1.3617   61.6027 N.ar    1  ZINC000465392830   -0.5300
     30 C30       -12.9366   -1.8277   60.5585 C.ar    1  ZINC000465392830    0.2000
     31 C31       -11.4327   -1.9181   60.5901 C.3     1  ZINC000465392830   -0.1100
     32 H32       -11.5158    2.8214   56.1967 H       1  ZINC000465392830    0.0600
     33 H33       -12.7954    1.7207   56.7619 H       1  ZINC000465392830    0.0600
     34 H34       -12.4754    3.2374   57.6370 H       1  ZINC000465392830    0.1000
     35 H35        -9.9578    1.8266   54.5372 H       1  ZINC000465392830    0.1000
     36 H36        -8.6777    1.1399   55.5903 H       1  ZINC000465392830    0.0800
     37 H37        -7.1871   -0.2772   54.2000 H       1  ZINC000465392830    0.0800
     38 H38        -7.8927   -2.1414   52.7249 H       1  ZINC000465392830    0.0600
     39 H39        -8.4647   -0.9677   51.5152 H       1  ZINC000465392830    0.0700
     40 H40        -5.5959   -1.2284   52.5248 H       1  ZINC000465392830    0.0600
     41 H41        -6.1973   -1.7962   50.9486 H       1  ZINC000465392830    0.0600
     42 H42        -5.0976    0.4162   50.7371 H       1  ZINC000465392830    0.0600
     43 H43        -6.8325    0.5258   50.3543 H       1  ZINC000465392830    0.0600
     44 H44        -5.5549    1.2163   53.0391 H       1  ZINC000465392830    0.0600
     45 H45        -6.1270    2.3900   51.8294 H       1  ZINC000465392830    0.0600
     46 H46        -8.4236    1.4770   52.0295 H       1  ZINC000465392830    0.0700
     47 H47        -7.8223    2.0448   53.6057 H       1  ZINC000465392830    0.0600
     48 H48        -9.7615   -2.3206   54.2269 H       1  ZINC000465392830    0.0900
     49 H49        -8.5698   -1.6747   55.3964 H       1  ZINC000465392830    0.0800
     50 H50       -12.0705   -0.7856   57.9793 H       1  ZINC000465392830    0.1000
     51 H51       -13.3048   -1.2081   56.7683 H       1  ZINC000465392830    0.1000
     52 H52       -13.5875   -3.3928   57.6471 H       1  ZINC000465392830    0.0900
     53 H53       -12.0479   -3.3287   58.5381 H       1  ZINC000465392830    0.0900
     54 H54       -16.0866   -3.6009   58.3308 H       1  ZINC000465392830    0.0900
     55 H55       -16.7394   -1.9512   58.1874 H       1  ZINC000465392830    0.0900
     56 H56       -15.2392   -2.3917   57.3368 H       1  ZINC000465392830    0.0900
     57 H57       -16.6174    1.0795   61.5706 H       1  ZINC000465392830    0.0900
     58 H58       -17.6754   -0.3518   61.5658 H       1  ZINC000465392830    0.0900
     59 H59       -17.7020    0.7699   62.9476 H       1  ZINC000465392830    0.1100
     60 H60       -11.1353   -2.8913   60.9807 H       1  ZINC000465392830    0.0900
     61 H61       -11.0402   -1.7965   59.5805 H       1  ZINC000465392830    0.0900
     62 H62       -11.0348   -1.1320   61.2318 H       1  ZINC000465392830    0.0800
@<TRIPOS>BOND
     1     1     2    1
     2     1    32    1
     3     1    33    1
     4     1    34    1
     5     2     3    1
     6     3     4    2
     7     3     5    1
     8     5     6    1
     9     5    17    1
    10     5     7    1
    11     7     8    1
    12     7    35    1
    13     7    36    1
    14     8     9    1
    15     8    10    1
    16     8    16    1
    17    10    15    1
    18    10    11    1
    19    10    37    1
    20    11    12    1
    21    11    38    1
    22    11    39    1
    23    12    13    1
    24    12    40    1
    25    12    41    1
    26    13    14    1
    27    13    42    1
    28    13    43    1
    29    14    15    1
    30    14    44    1
    31    14    45    1
    32    15    46    1
    33    15    47    1
    34    16    17    1
    35    16    48    1
    36    16    49    1
    37    17    18   am
    38    18    19    2
    39    18    20    1
    40    20    21    1
    41    20    50    1
    42    20    51    1
    43    21    22    1
    44    21    52    1
    45    21    53    1
    46    22    30   ar
    47    22    23   ar
    48    23    24    1
    49    23    25   ar
    50    24    54    1
    51    24    55    1
    52    24    56    1
    53    25    26   ar
    54    26    27    1
    55    26    29   ar
    56    27    28    1
    57    28    57    1
    58    28    58    1
    59    28    59    1
    60    29    30   ar
    61    30    31    1
    62    31    60    1
    63    31    61    1
    64    31    62    1
@<TRIPOS>SUBSTRUCTURE
     1 ZINC000465392830        1 TEMP              0 ****  ****    0 ROOT


##########                                Name:    ZINC000548281822
##########                DOCK_Rotatable_Bonds:                   6
##########                         Heavy_Atoms:                  24
##########                    Molecular_Weight:             332.406
##########                DOCK_Rotatable_Bonds:                   6
##########                       Formal_Charge:        -5.58794e-08
##########                     HBond_Acceptors:                   8
##########                        HBond_Donors:                   2
##########                         Heavy_Atoms:                  24
##########                          Grid_Score:          -28.705900
##########                     Grid_vdw_energy:          -29.094736
##########                      Grid_es_energy:            0.388837
##########           Internal_energy_repulsive:            6.463114

@<TRIPOS>MOLECULE
ZINC000548281822
 48 50 1 0 0
SMALL
USER_CHARGES


@<TRIPOS>ATOM
      1 C1         -2.9717    3.7247   52.2434 C.3     1  ZINC000548281822   -0.1700
      2 C2         -3.6692    2.9252   51.1409 C.3     1  ZINC000548281822    0.2600
      3 H3         -3.9318    3.5918   50.3194 H       1  ZINC000548281822    0.1400
      4 N4         -2.7680    1.8789   50.6518 N.am    1  ZINC000548281822   -0.7400
      5 C5         -2.0351    2.0863   49.5400 C.2     1  ZINC000548281822    0.7100
      6 O6         -2.1230    3.1413   48.9419 O.2     1  ZINC000548281822   -0.5700
      7 N7         -1.2049    1.1243   49.0909 N.am    1  ZINC000548281822   -0.7400
      8 C8         -0.4069    1.3505   47.8833 C.3     1  ZINC000548281822    0.1600
      9 H9         -0.1193    2.4004   47.8284 H       1  ZINC000548281822    0.1000
     10 C10         0.8507    0.4776   47.9304 C.3     1  ZINC000548281822   -0.1400
     11 C11         1.7963    0.8810   46.7937 C.3     1  ZINC000548281822    0.1100
     12 N12         1.0405    0.9110   45.5393 N.pl3   1  ZINC000548281822   -0.4600
     13 C13         1.5320    0.9015   44.2679 C.2     1  ZINC000548281822   -0.0500
     14 C14         0.4675    0.9382   43.4409 C.2     1  ZINC000548281822   -0.0300
     15 N15        -0.6441    0.9695   44.1938 N.2     1  ZINC000548281822   -0.4900
     16 C16        -0.3101    0.9539   45.4510 C.2     1  ZINC000548281822    0.2100
     17 C17        -1.2343    0.9805   46.6457 C.3     1  ZINC000548281822   -0.0500
     18 C18        -4.9202    2.2926   51.6939 C.2     1  ZINC000548281822    0.1700
     19 N19        -5.4114    1.1206   51.3704 N.2     1  ZINC000548281822   -0.4600
     20 C20        -6.5258    0.9785   52.1098 C.2     1  ZINC000548281822    0.1900
     21 C21        -7.4557   -0.2074   52.1026 C.3     1  ZINC000548281822    0.0200
     22 C22        -8.1838   -0.2927   53.4456 C.3     1  ZINC000548281822   -0.1400
     23 C23        -8.4794   -0.0460   50.9770 C.3     1  ZINC000548281822   -0.1400
     24 C24        -6.6483   -1.4873   51.8780 C.3     1  ZINC000548281822   -0.1400
     25 N25        -6.6533    2.0514   52.8318 N.2     1  ZINC000548281822   -0.3700
     26 O26        -5.7380    2.8165   52.6120 O.3     1  ZINC000548281822    0.0800
     27 H27        -2.7092    3.0581   53.0649 H       1  ZINC000548281822    0.0700
     28 H28        -2.0670    4.1822   51.8433 H       1  ZINC000548281822    0.0900
     29 H29        -3.6422    4.5032   52.6073 H       1  ZINC000548281822    0.0800
     30 H30        -2.6988    1.0367   51.1283 H       1  ZINC000548281822    0.4000
     31 H31        -1.1357    0.2822   49.5673 H       1  ZINC000548281822    0.4000
     32 H32         1.3534    0.6162   48.8874 H       1  ZINC000548281822    0.1000
     33 H33         0.5705   -0.5695   47.8155 H       1  ZINC000548281822    0.0800
     34 H34         2.2091    1.8694   46.9953 H       1  ZINC000548281822    0.0900
     35 H35         2.6048    0.1541   46.7157 H       1  ZINC000548281822    0.1000
     36 H36         2.5722    0.8711   43.9790 H       1  ZINC000548281822    0.1800
     37 H37         0.5027    0.9424   42.3615 H       1  ZINC000548281822    0.1700
     38 H38        -1.6837   -0.0028   46.7848 H       1  ZINC000548281822    0.0900
     39 H39        -2.0158    1.7240   46.4895 H       1  ZINC000548281822    0.1000
     40 H40        -8.7590    0.6193   53.6057 H       1  ZINC000548281822    0.0600
     41 H41        -8.8564   -1.1504   53.4405 H       1  ZINC000548281822    0.0700
     42 H42        -7.4544   -0.4076   54.2476 H       1  ZINC000548281822    0.0700
     43 H43        -7.9607    0.0148   50.0203 H       1  ZINC000548281822    0.0600
     44 H44        -9.1520   -0.9037   50.9719 H       1  ZINC000548281822    0.0700
     45 H45        -9.0547    0.8659   51.1370 H       1  ZINC000548281822    0.0600
     46 H46        -5.9190   -1.6024   52.6799 H       1  ZINC000548281822    0.0700
     47 H47        -7.3209   -2.3451   51.8729 H       1  ZINC000548281822    0.0700
     48 H48        -6.1296   -1.4266   50.9213 H       1  ZINC000548281822    0.0600
@<TRIPOS>BOND
     1     1     2    1
     2     1    27    1
     3     1    28    1
     4     1    29    1
     5     2     3    1
     6     2     4    1
     7     2    18    1
     8     4     5   am
     9     4    30    1
    10     5     6    2
    11     5     7   am
    12     7     8    1
    13     7    31    1
    14     8     9    1
    15     8    17    1
    16     8    10    1
    17    10    11    1
    18    10    32    1
    19    10    33    1
    20    11    12    1
    21    11    34    1
    22    11    35    1
    23    12    16    1
    24    12    13    1
    25    13    14    2
    26    13    36    1
    27    14    15    1
    28    14    37    1
    29    15    16    2
    30    16    17    1
    31    17    38    1
    32    17    39    1
    33    18    26    1
    34    18    19    2
    35    19    20    1
    36    20    21    1
    37    20    25    2
    38    21    22    1
    39    21    23    1
    40    21    24    1
    41    22    40    1
    42    22    41    1
    43    22    42    1
    44    23    43    1
    45    23    44    1
    46    23    45    1
    47    24    46    1
    48    24    47    1
    49    24    48    1
    50    25    26    1
@<TRIPOS>SUBSTRUCTURE
     1 ZINC000548281822        1 TEMP              0 ****  ****    0 ROOT


##########                                Name:    ZINC000076573199
##########                DOCK_Rotatable_Bonds:                  10
##########                         Heavy_Atoms:                  24
##########                    Molecular_Weight:             333.431
##########                DOCK_Rotatable_Bonds:                  10
##########                       Formal_Charge:          -0.0200009
##########                     HBond_Acceptors:                   6
##########                        HBond_Donors:                   3
##########                         Heavy_Atoms:                  24
##########                          Grid_Score:          -28.683943
##########                     Grid_vdw_energy:          -27.196512
##########                      Grid_es_energy:           -1.487430
##########           Internal_energy_repulsive:           23.149342

@<TRIPOS>MOLECULE
ZINC000076573199
 51 51 1 0 0
SMALL
USER_CHARGES


@<TRIPOS>ATOM
      1 C1         -8.4995   -0.5902   51.2499 C.3     1  ZINC000076573199   -0.1500
      2 C2         -9.4588    0.2772   52.0676 C.3     1  ZINC000076573199   -0.1200
      3 C3         -9.7370   -0.3982   53.4120 C.3     1  ZINC000076573199   -0.1000
      4 H4         -9.9370   -1.4576   53.2518 H       1  ZINC000076573199    0.0700
      5 C5        -10.9533    0.2566   54.0697 C.3     1  ZINC000076573199   -0.1500
      6 C6         -8.5181   -0.2414   54.3234 C.3     1  ZINC000076573199   -0.1200
      7 C7         -8.1747    1.2428   54.4648 C.3     1  ZINC000076573199    0.1400
      8 H8         -8.9882    1.8443   54.0593 H       1  ZINC000076573199    0.1000
      9 C9         -7.9779    1.5820   55.9437 C.3     1  ZINC000076573199   -0.1700
     10 N10        -6.9409    1.5308   53.7293 N.am    1  ZINC000076573199   -0.6900
     11 C11        -6.7056    2.7756   53.2691 C.2     1  ZINC000076573199    0.5100
     12 O12        -7.5166    3.6575   53.4627 O.2     1  ZINC000076573199   -0.5100
     13 C13        -5.4469    3.0696   52.5209 C.2     1  ZINC000076573199    0.5100
     14 O14        -5.0906    4.2188   52.3605 O.2     1  ZINC000076573199   -0.5000
     15 N15        -4.7068    2.0589   52.0237 N.am    1  ZINC000076573199   -0.6400
     16 C16        -3.5292    2.3340   51.3237 C.ar    1  ZINC000076573199    0.1500
     17 C17        -2.3400    2.5337   52.0142 C.ar    1  ZINC000076573199   -0.1300
     18 C18        -1.1752    2.8053   51.3223 C.ar    1  ZINC000076573199   -0.0800
     19 C19        -1.1887    2.8792   49.9429 C.ar    1  ZINC000076573199   -0.1200
     20 C20         0.0842    3.1752   49.1926 C.3     1  ZINC000076573199   -0.1100
     21 C21        -2.3746    2.6806   49.2464 C.ar    1  ZINC000076573199    0.1600
     22 N22        -2.3871    2.7557   47.8493 N.am    1  ZINC000076573199   -0.6700
     23 C23        -2.2730    1.6326   47.1130 C.2     1  ZINC000076573199    0.5100
     24 C24        -2.2864    1.7134   45.6082 C.3     1  ZINC000076573199   -0.1700
     25 O25        -2.1593    0.5569   47.6614 O.2     1  ZINC000076573199   -0.5200
     26 C26        -3.5448    2.4025   49.9372 C.ar    1  ZINC000076573199   -0.1400
     27 H27        -8.9501   -1.5679   51.0790 H       1  ZINC000076573199    0.0600
     28 H28        -8.3013   -0.1090   50.2923 H       1  ZINC000076573199    0.0500
     29 H29        -7.5642   -0.7116   51.7961 H       1  ZINC000076573199    0.0500
     30 H30        -9.0083    1.2549   52.2385 H       1  ZINC000076573199    0.0600
     31 H31       -10.3942    0.3985   51.5214 H       1  ZINC000076573199    0.0600
     32 H32       -10.7234    1.2957   54.3055 H       1  ZINC000076573199    0.0600
     33 H33       -11.8010    0.2184   53.3855 H       1  ZINC000076573199    0.0600
     34 H34       -11.2021   -0.2775   54.9866 H       1  ZINC000076573199    0.0500
     35 H35        -8.7429   -0.6575   55.3054 H       1  ZINC000076573199    0.0800
     36 H36        -7.6698   -0.7710   53.8898 H       1  ZINC000076573199    0.0700
     37 H37        -7.7332    2.6395   56.0445 H       1  ZINC000076573199    0.0600
     38 H38        -8.8959    1.3678   56.4910 H       1  ZINC000076573199    0.0700
     39 H39        -7.1643    0.9806   56.3493 H       1  ZINC000076573199    0.0600
     40 H40        -6.2932    0.8257   53.5736 H       1  ZINC000076573199    0.4100
     41 H41        -4.9916    1.1405   52.1520 H       1  ZINC000076573199    0.4200
     42 H42        -2.3262    2.4769   53.0925 H       1  ZINC000076573199    0.1400
     43 H43        -0.2522    2.9605   51.8612 H       1  ZINC000076573199    0.1300
     44 H44         0.5921    2.2404   48.9558 H       1  ZINC000076573199    0.0700
     45 H45        -0.1528    3.7039   48.2694 H       1  ZINC000076573199    0.0600
     46 H46         0.7340    3.7955   49.8100 H       1  ZINC000076573199    0.0700
     47 H47        -2.4779    3.6161   47.4106 H       1  ZINC000076573199    0.4100
     48 H48        -1.4574    2.3353   45.2703 H       1  ZINC000076573199    0.0900
     49 H49        -2.1838    0.7123   45.1895 H       1  ZINC000076573199    0.1000
     50 H50        -3.2278    2.1514   45.2763 H       1  ZINC000076573199    0.0900
     51 H51        -4.4678    2.2477   49.3981 H       1  ZINC000076573199    0.1400
@<TRIPOS>BOND
     1     1     2    1
     2     1    27    1
     3     1    28    1
     4     1    29    1
     5     2     3    1
     6     2    30    1
     7     2    31    1
     8     3     4    1
     9     3     5    1
    10     3     6    1
    11     5    32    1
    12     5    33    1
    13     5    34    1
    14     6     7    1
    15     6    35    1
    16     6    36    1
    17     7     8    1
    18     7     9    1
    19     7    10    1
    20     9    37    1
    21     9    38    1
    22     9    39    1
    23    10    11   am
    24    10    40    1
    25    11    12    2
    26    11    13    1
    27    13    14    2
    28    13    15   am
    29    15    16    1
    30    15    41    1
    31    16    26   ar
    32    16    17   ar
    33    17    18   ar
    34    17    42    1
    35    18    19   ar
    36    18    43    1
    37    19    20    1
    38    19    21   ar
    39    20    44    1
    40    20    45    1
    41    20    46    1
    42    21    22    1
    43    21    26   ar
    44    22    23   am
    45    22    47    1
    46    23    24    1
    47    23    25    2
    48    24    48    1
    49    24    49    1
    50    24    50    1
    51    26    51    1
@<TRIPOS>SUBSTRUCTURE
     1 ZINC000076573199        1 TEMP              0 ****  ****    0 ROOT


##########                                Name:    ZINC000052999724
##########                DOCK_Rotatable_Bonds:                   6
##########                         Heavy_Atoms:                  25
##########                    Molecular_Weight:             398.571
##########                DOCK_Rotatable_Bonds:                   6
##########                       Formal_Charge:           0.0399994
##########                     HBond_Acceptors:                   8
##########                        HBond_Donors:                   1
##########                         Heavy_Atoms:                  25
##########                          Grid_Score:          -28.681339
##########                     Grid_vdw_energy:          -28.649385
##########                      Grid_es_energy:           -0.031955
##########           Internal_energy_repulsive:           12.825818

@<TRIPOS>MOLECULE
ZINC000052999724
 47 49 1 0 0
SMALL
USER_CHARGES


@<TRIPOS>ATOM
      1 C1        -11.7959   -3.6066   57.6877 C.3     1  ZINC000052999724   -0.1400
      2 C2        -12.5671   -2.7672   56.6672 C.3     1  ZINC000052999724   -0.0400
      3 C3        -14.0157   -3.2544   56.5966 C.3     1  ZINC000052999724   -0.1400
      4 C4        -12.5437   -1.3200   57.0867 C.2     1  ZINC000052999724   -0.0400
      5 C5        -12.3689   -0.2864   56.2102 C.2     1  ZINC000052999724   -0.2600
      6 C6        -12.1823   -0.4214   54.7626 C.2     1  ZINC000052999724    0.6000
      7 O7        -13.1252   -0.2616   54.0099 O.2     1  ZINC000052999724   -0.5200
      8 N8        -10.9664   -0.7227   54.2651 N.am    1  ZINC000052999724   -0.6000
      9 C9        -10.7623   -0.8554   52.8162 C.3     1  ZINC000052999724    0.1100
     10 C10        -9.6086    0.0601   52.3948 C.3     1  ZINC000052999724   -0.1400
     11 C11        -8.3720   -0.2642   53.2361 C.3     1  ZINC000052999724    0.1500
     12 N12        -7.2571    0.5869   52.8131 N.am    1  ZINC000052999724   -1.1100
     13 S13        -6.2122    0.0608   51.6410 S.o2    1  ZINC000052999724    2.7200
     14 O14        -5.5135   -1.0461   52.1938 O.2     1  ZINC000052999724   -0.9500
     15 O15        -6.9649   -0.0173   50.4381 O.2     1  ZINC000052999724   -0.9400
     16 C16        -5.0173    1.3328   51.3985 C.2     1  ZINC000052999724   -0.8000
     17 C17        -4.6145    2.1974   52.3310 C.2     1  ZINC000052999724    0.0100
     18 C18        -3.6635    3.1101   51.9083 C.2     1  ZINC000052999724   -0.1600
     19 C19        -3.2941    2.9868   50.6325 C.2     1  ZINC000052999724   -0.1700
     20 S20        -4.1676    1.6518   49.8920 S.3     1  ZINC000052999724    0.2100
     21 C21        -8.6767   -0.0083   54.7139 C.3     1  ZINC000052999724   -0.1500
     22 C22        -9.8186   -0.9186   55.1611 C.3     1  ZINC000052999724    0.1100
     23 S23       -12.4044    1.2316   57.0969 S.3     1  ZINC000052999724    0.2100
     24 C24       -12.6481    0.4161   58.5755 C.2     1  ZINC000052999724   -0.2400
     25 C25       -12.7019   -0.9079   58.3886 C.2     1  ZINC000052999724   -0.1300
     26 H26       -10.7639   -3.2596   57.7380 H       1  ZINC000052999724    0.0600
     27 H27       -12.2616   -3.5050   58.6679 H       1  ZINC000052999724    0.0600
     28 H28       -11.8128   -4.6534   57.3842 H       1  ZINC000052999724    0.0600
     29 H29       -12.1014   -2.8689   55.6869 H       1  ZINC000052999724    0.0800
     30 H30       -14.4814   -3.1528   57.5769 H       1  ZINC000052999724    0.0600
     31 H31       -14.5652   -2.6564   55.8695 H       1  ZINC000052999724    0.0600
     32 H32       -14.0326   -4.3012   56.2931 H       1  ZINC000052999724    0.0600
     33 H33       -10.5151   -1.8893   52.5752 H       1  ZINC000052999724    0.0800
     34 H34       -11.6715   -0.5629   52.2908 H       1  ZINC000052999724    0.0900
     35 H35        -9.3835   -0.1000   51.3404 H       1  ZINC000052999724    0.0900
     36 H36        -9.8934    1.1003   52.5527 H       1  ZINC000052999724    0.0800
     37 H37        -8.1027   -1.3112   53.0971 H       1  ZINC000052999724    0.0900
     38 H38        -7.1310    1.4585   53.2196 H       1  ZINC000052999724    0.4200
     39 H39        -5.0012    2.1862   53.3393 H       1  ZINC000052999724    0.1600
     40 H40        -3.2522    3.8651   52.5618 H       1  ZINC000052999724    0.1500
     41 H41        -2.5670    3.6092   50.1319 H       1  ZINC000052999724    0.1800
     42 H42        -7.7884   -0.2172   55.3100 H       1  ZINC000052999724    0.1000
     43 H43        -8.9703    1.0326   54.8498 H       1  ZINC000052999724    0.0800
     44 H44       -10.1047   -0.6705   56.1832 H       1  ZINC000052999724    0.1000
     45 H45        -9.4972   -1.9590   55.1116 H       1  ZINC000052999724    0.0800
     46 H46       -12.7494    0.9036   59.5339 H       1  ZINC000052999724    0.1700
     47 H47       -12.8505   -1.6023   59.2023 H       1  ZINC000052999724    0.1400
@<TRIPOS>BOND
     1     1     2    1
     2     1    26    1
     3     1    27    1
     4     1    28    1
     5     2     3    1
     6     2     4    1
     7     2    29    1
     8     3    30    1
     9     3    31    1
    10     3    32    1
    11     4    25    1
    12     4     5    2
    13     5     6    1
    14     5    23    1
    15     6     7    2
    16     6     8   am
    17     8    22    1
    18     8     9    1
    19     9    10    1
    20     9    33    1
    21     9    34    1
    22    10    11    1
    23    10    35    1
    24    10    36    1
    25    11    12    1
    26    11    21    1
    27    11    37    1
    28    12    13   am
    29    12    38    1
    30    13    14    2
    31    13    15    2
    32    13    16    1
    33    16    20    1
    34    16    17    2
    35    17    18    1
    36    17    39    1
    37    18    19    2
    38    18    40    1
    39    19    20    1
    40    19    41    1
    41    21    22    1
    42    21    42    1
    43    21    43    1
    44    22    44    1
    45    22    45    1
    46    23    24    1
    47    24    25    2
    48    24    46    1
    49    25    47    1
@<TRIPOS>SUBSTRUCTURE
     1 ZINC000052999724        1 TEMP              0 ****  ****    0 ROOT


##########                                Name:    ZINC000279593480
##########                DOCK_Rotatable_Bonds:                   9
##########                         Heavy_Atoms:                  23
##########                    Molecular_Weight:              340.85
##########                DOCK_Rotatable_Bonds:                   9
##########                       Formal_Charge:          -0.0500002
##########                     HBond_Acceptors:                   6
##########                        HBond_Donors:                   3
##########                         Heavy_Atoms:                  23
##########                          Grid_Score:          -28.674971
##########                     Grid_vdw_energy:          -28.874800
##########                      Grid_es_energy:            0.199829
##########           Internal_energy_repulsive:           17.024450

@<TRIPOS>MOLECULE
ZINC000279593480
 48 49 1 0 0
SMALL
USER_CHARGES


@<TRIPOS>ATOM
      1 C1         -1.3657    3.4350   54.0532 C.3     1  ZINC000279593480   -0.1400
      2 C2         -2.7033    3.1312   53.3751 C.3     1  ZINC000279593480   -0.1400
      3 C3         -2.6232    3.5126   51.8956 C.3     1  ZINC000279593480    0.1700
      4 H4         -1.9742    4.3804   51.7786 H       1  ZINC000279593480    0.0900
      5 C5         -4.0235    3.8495   51.3794 C.3     1  ZINC000279593480   -0.0900
      6 C6         -5.0033    2.8168   51.8741 C.ar    1  ZINC000279593480   -0.0800
      7 C7         -5.8991    3.1387   52.8767 C.ar    1  ZINC000279593480   -0.1000
      8 C8         -6.7979    2.1920   53.3308 C.ar    1  ZINC000279593480   -0.1100
      9 C9         -6.8010    0.9220   52.7819 C.ar    1  ZINC000279593480   -0.0400
     10 Cl10       -7.9300   -0.2674   53.3514 Cl      1  ZINC000279593480   -0.0700
     11 C11        -5.9042    0.6005   51.7786 C.ar    1  ZINC000279593480   -0.1100
     12 C12        -5.0096    1.5497   51.3214 C.ar    1  ZINC000279593480   -0.1000
     13 N13        -2.0781    2.3885   51.1304 N.am    1  ZINC000279593480   -0.7400
     14 C14        -1.5517    2.5979   49.9075 C.2     1  ZINC000279593480    0.7100
     15 O15        -1.5279    3.7202   49.4400 O.2     1  ZINC000279593480   -0.5800
     16 N16        -1.0517    1.5636   49.2028 N.am    1  ZINC000279593480   -0.7500
     17 C17        -0.4779    1.7917   47.8743 C.3     1  ZINC000279593480    0.1200
     18 C18        -1.3537    1.1153   46.8176 C.3     1  ZINC000279593480    0.0900
     19 O19        -2.6803    0.9269   47.3144 O.3     1  ZINC000279593480   -0.5400
     20 C20        -1.3729    1.9483   45.5164 C.3     1  ZINC000279593480   -0.1900
     21 C21        -0.7677    1.0021   44.4559 C.3     1  ZINC000279593480    0.0500
     22 O22        -0.9999   -0.3269   44.9717 O.3     1  ZINC000279593480   -0.3600
     23 C23        -0.7392   -0.2358   46.3893 C.3     1  ZINC000279593480    0.0900
     24 H24         0.3342   -0.2414   46.5789 H       1  ZINC000279593480    0.0800
     25 C25        -1.4161   -1.3904   47.1307 C.3     1  ZINC000279593480   -0.1400
     26 H26        -1.1462    4.4989   53.9635 H       1  ZINC000279593480    0.0600
     27 H27        -1.4227    3.1633   55.1072 H       1  ZINC000279593480    0.0400
     28 H28        -0.5753    2.8591   53.5718 H       1  ZINC000279593480    0.0600
     29 H29        -2.9227    2.0673   53.4647 H       1  ZINC000279593480    0.0600
     30 H30        -3.4937    3.7071   53.8565 H       1  ZINC000279593480    0.0700
     31 H31        -4.3181    4.8337   51.7438 H       1  ZINC000279593480    0.0800
     32 H32        -4.0180    3.8523   50.2894 H       1  ZINC000279593480    0.0900
     33 H33        -5.8964    4.1300   53.3052 H       1  ZINC000279593480    0.1300
     34 H34        -7.4975    2.4435   54.1142 H       1  ZINC000279593480    0.1300
     35 H35        -5.9059   -0.3908   51.3499 H       1  ZINC000279593480    0.1300
     36 H36        -4.3098    1.2990   50.5380 H       1  ZINC000279593480    0.1300
     37 H37        -2.0961    1.4934   51.5038 H       1  ZINC000279593480    0.3900
     38 H38        -1.0718    0.6682   49.5752 H       1  ZINC000279593480    0.3900
     39 H39        -0.4324    2.8627   47.6771 H       1  ZINC000279593480    0.0800
     40 H40         0.5274    1.3720   47.8357 H       1  ZINC000279593480    0.0800
     41 H41        -3.3030    0.5906   46.6555 H       1  ZINC000279593480    0.3700
     42 H42        -2.3951    2.2168   45.2499 H       1  ZINC000279593480    0.0900
     43 H43        -0.7585    2.8420   45.6259 H       1  ZINC000279593480    0.0900
     44 H44        -1.2735    1.1314   43.4991 H       1  ZINC000279593480    0.1000
     45 H45         0.3013    1.1861   44.3490 H       1  ZINC000279593480    0.0600
     46 H46        -1.0095   -2.3376   46.7766 H       1  ZINC000279593480    0.0600
     47 H47        -1.2317   -1.2930   48.2005 H       1  ZINC000279593480    0.0700
     48 H48        -2.4895   -1.3630   46.9430 H       1  ZINC000279593480    0.0700
@<TRIPOS>BOND
     1     1     2    1
     2     1    26    1
     3     1    27    1
     4     1    28    1
     5     2     3    1
     6     2    29    1
     7     2    30    1
     8     3     4    1
     9     3     5    1
    10     3    13    1
    11     5     6    1
    12     5    31    1
    13     5    32    1
    14     6    12   ar
    15     6     7   ar
    16     7     8   ar
    17     7    33    1
    18     8     9   ar
    19     8    34    1
    20     9    10    1
    21     9    11   ar
    22    11    12   ar
    23    11    35    1
    24    12    36    1
    25    13    14   am
    26    13    37    1
    27    14    15    2
    28    14    16   am
    29    16    17    1
    30    16    38    1
    31    17    18    1
    32    17    39    1
    33    17    40    1
    34    18    23    1
    35    18    19    1
    36    18    20    1
    37    19    41    1
    38    20    21    1
    39    20    42    1
    40    20    43    1
    41    21    22    1
    42    21    44    1
    43    21    45    1
    44    22    23    1
    45    23    24    1
    46    23    25    1
    47    25    46    1
    48    25    47    1
    49    25    48    1
@<TRIPOS>SUBSTRUCTURE
     1 ZINC000279593480        1 TEMP              0 ****  ****    0 ROOT


##########                                Name:    ZINC000288921983
##########                DOCK_Rotatable_Bonds:                   6
##########                         Heavy_Atoms:                  26
##########                    Molecular_Weight:             356.428
##########                DOCK_Rotatable_Bonds:                   6
##########                       Formal_Charge:           0.0199997
##########                     HBond_Acceptors:                   8
##########                        HBond_Donors:                   1
##########                         Heavy_Atoms:                  26
##########                          Grid_Score:          -28.673971
##########                     Grid_vdw_energy:          -27.949463
##########                      Grid_es_energy:           -0.724508
##########           Internal_energy_repulsive:           59.049961

@<TRIPOS>MOLECULE
ZINC000288921983
 50 53 1 0 0
SMALL
USER_CHARGES


@<TRIPOS>ATOM
      1 C1        -12.4085    0.2820   51.3937 C.3     1  ZINC000288921983   -0.1400
      2 C2        -11.2337    1.2094   51.7112 C.3     1  ZINC000288921983   -0.0500
      3 C3        -10.7358    0.9300   53.1058 C.ar    1  ZINC000288921983    0.3000
      4 N4         -9.8008    0.0177   53.2804 N.ar    1  ZINC000288921983   -0.5000
      5 C5         -9.3370   -0.2568   54.4884 C.ar    1  ZINC000288921983    0.1300
      6 C6         -9.8514    0.4339   55.5824 C.ar    1  ZINC000288921983    0.0500
      7 N7         -9.3884    0.1747   56.8779 N.am    1  ZINC000288921983   -0.6700
      8 C8         -9.7776   -0.9437   57.5214 C.2     1  ZINC000288921983    0.7100
      9 O9        -10.5309   -1.7275   56.9769 O.2     1  ZINC000288921983   -0.5500
     10 N10        -9.3318   -1.1932   58.7686 N.am    1  ZINC000288921983   -0.6200
     11 C11        -8.4214   -0.2555   59.4398 C.3     1  ZINC000288921983    0.1100
     12 C12        -9.0169    0.1219   60.7998 C.3     1  ZINC000288921983   -0.1400
     13 C13        -9.3064   -1.1523   61.5967 C.3     1  ZINC000288921983   -0.1200
     14 C14       -10.3277   -2.0067   60.8424 C.3     1  ZINC000288921983   -0.1300
     15 C15        -9.7519   -2.4052   59.4852 C.3     1  ZINC000288921983    0.2700
     16 H16        -8.8884   -3.0541   59.6310 H       1  ZINC000288921983    0.1100
     17 C17       -10.8014   -3.1327   58.6851 C.2     1  ZINC000288921983    0.1700
     18 N18       -10.6123   -4.1873   57.9441 N.2     1  ZINC000288921983   -0.2500
     19 N19       -11.7284   -4.5390   57.4092 N.2     1  ZINC000288921983   -0.2700
     20 C20       -12.6675   -3.7207   57.7908 C.2     1  ZINC000288921983    0.1800
     21 C21       -14.1194   -3.7810   57.3913 C.3     1  ZINC000288921983   -0.0300
     22 C22       -15.0771   -3.2423   58.4671 C.3     1  ZINC000288921983   -0.1200
     23 C23       -14.9012   -1.8589   57.8191 C.3     1  ZINC000288921983   -0.1400
     24 C24       -14.5664   -2.5999   56.5139 C.3     1  ZINC000288921983   -0.1200
     25 O25       -12.1050   -2.8161   58.6097 O.3     1  ZINC000288921983   -0.2200
     26 C26       -10.8379    1.3895   55.3541 C.ar    1  ZINC000288921983    0.1600
     27 N27       -11.2441    1.6089   54.1146 N.ar    1  ZINC000288921983   -0.5000
     28 H28       -12.7686    0.4842   50.3849 H       1  ZINC000288921983    0.0700
     29 H29       -12.0810   -0.7554   51.4614 H       1  ZINC000288921983    0.0600
     30 H30       -13.2127    0.4567   52.1084 H       1  ZINC000288921983    0.0600
     31 H31       -10.4295    1.0349   50.9964 H       1  ZINC000288921983    0.0900
     32 H32       -11.5612    2.2469   51.6434 H       1  ZINC000288921983    0.0900
     33 H33        -8.5710   -1.0059   54.6241 H       1  ZINC000288921983    0.1700
     34 H34        -8.7875    0.8001   57.3123 H       1  ZINC000288921983    0.4100
     35 H35        -7.4506   -0.7294   59.5849 H       1  ZINC000288921983    0.0800
     36 H36        -8.3055    0.6407   58.8303 H       1  ZINC000288921983    0.0800
     37 H37        -8.3071    0.7409   61.3486 H       1  ZINC000288921983    0.0900
     38 H38        -9.9436    0.6758   60.6501 H       1  ZINC000288921983    0.0700
     39 H39        -8.3836   -1.7180   61.7248 H       1  ZINC000288921983    0.0700
     40 H40        -9.7074   -0.8857   62.5746 H       1  ZINC000288921983    0.0800
     41 H41       -10.5509   -2.9027   61.4217 H       1  ZINC000288921983    0.0900
     42 H42       -11.2421   -1.4327   60.6924 H       1  ZINC000288921983    0.0900
     43 H43       -14.4091   -4.7539   56.9945 H       1  ZINC000288921983    0.1000
     44 H44       -16.0902   -3.6365   58.3866 H       1  ZINC000288921983    0.1000
     45 H45       -14.6767   -3.3046   59.4789 H       1  ZINC000288921983    0.0800
     46 H46       -15.8234   -1.2801   57.7683 H       1  ZINC000288921983    0.0700
     47 H47       -14.0649   -1.2898   58.2250 H       1  ZINC000288921983    0.1000
     48 H48       -13.7536   -2.1435   55.9489 H       1  ZINC000288921983    0.0700
     49 H49       -15.4398   -2.8183   55.8994 H       1  ZINC000288921983    0.1000
     50 H50       -11.2623    1.9462   56.1765 H       1  ZINC000288921983    0.1800
@<TRIPOS>BOND
     1     1     2    1
     2     1    28    1
     3     1    29    1
     4     1    30    1
     5     2     3    1
     6     2    31    1
     7     2    32    1
     8     3    27   ar
     9     3     4   ar
    10     4     5   ar
    11     5     6   ar
    12     5    33    1
    13     6     7    1
    14     6    26   ar
    15     7     8   am
    16     7    34    1
    17     8     9    2
    18     8    10   am
    19    10    15    1
    20    10    11    1
    21    11    12    1
    22    11    35    1
    23    11    36    1
    24    12    13    1
    25    12    37    1
    26    12    38    1
    27    13    14    1
    28    13    39    1
    29    13    40    1
    30    14    15    1
    31    14    41    1
    32    14    42    1
    33    15    16    1
    34    15    17    1
    35    17    25    1
    36    17    18    2
    37    18    19    1
    38    19    20    2
    39    20    21    1
    40    20    25    1
    41    21    24    1
    42    21    22    1
    43    21    43    1
    44    22    23    1
    45    22    44    1
    46    22    45    1
    47    23    24    1
    48    23    46    1
    49    23    47    1
    50    24    48    1
    51    24    49    1
    52    26    27   ar
    53    26    50    1
@<TRIPOS>SUBSTRUCTURE
     1 ZINC000288921983        1 TEMP              0 ****  ****    0 ROOT


##########                                Name:    ZINC000893400114
##########                DOCK_Rotatable_Bonds:                   6
##########                         Heavy_Atoms:                  27
##########                    Molecular_Weight:             381.472
##########                DOCK_Rotatable_Bonds:                   6
##########                       Formal_Charge:           0.0300001
##########                     HBond_Acceptors:                   8
##########                        HBond_Donors:                   1
##########                         Heavy_Atoms:                  27
##########                          Grid_Score:          -28.627289
##########                     Grid_vdw_energy:          -27.893877
##########                      Grid_es_energy:           -0.733412
##########           Internal_energy_repulsive:           79.064690

@<TRIPOS>MOLECULE
ZINC000893400114
 58 61 1 0 0
SMALL
USER_CHARGES


@<TRIPOS>ATOM
      1 O1         -5.3788    3.2459   52.9079 O.2     1  ZINC000893400114   -0.5600
      2 C2         -5.3599    2.3213   52.1185 C.2     1  ZINC000893400114    0.7100
      3 N3         -4.3870    2.2490   51.1886 N.am    1  ZINC000893400114   -0.7300
      4 C4         -3.3555    3.2875   51.1253 C.3     1  ZINC000893400114    0.1400
      5 H5         -3.7283    4.2204   51.5482 H       1  ZINC000893400114    0.1200
      6 C6         -2.8925    3.5020   49.6656 C.3     1  ZINC000893400114   -0.1400
      7 C7         -1.6645    2.5683   49.5842 C.3     1  ZINC000893400114    0.1000
      8 N8         -1.1743    2.4452   50.9621 N.am    1  ZINC000893400114   -0.6200
      9 C9          0.1590    1.9582   51.3246 C.3     1  ZINC000893400114    0.1600
     10 C10         0.6623    0.9926   50.2474 C.3     1  ZINC000893400114   -0.1700
     11 C11         2.0863    0.5504   50.5944 C.3     1  ZINC000893400114    0.0700
     12 O12         2.9273    1.7005   50.7045 O.3     1  ZINC000893400114   -0.3800
     13 C13         2.5325    2.6162   51.7282 C.3     1  ZINC000893400114    0.0700
     14 C14         1.1265    3.1414   51.4266 C.3     1  ZINC000893400114   -0.1700
     15 C15        -2.1068    2.8385   51.8516 C.2     1  ZINC000893400114    0.5100
     16 O16        -1.9644    2.8320   53.0560 O.2     1  ZINC000893400114   -0.4900
     17 N17        -6.3088    1.3660   52.1767 N.am    1  ZINC000893400114   -0.6300
     18 C18        -6.3033    0.2346   51.2358 C.3     1  ZINC000893400114    0.0800
     19 C19        -6.4252   -1.0643   52.0408 C.3     1  ZINC000893400114    0.0500
     20 O20        -7.5517   -0.9718   52.9159 O.3     1  ZINC000893400114   -0.3800
     21 C21        -7.4499    0.0664   53.8935 C.3     1  ZINC000893400114    0.0600
     22 C22        -7.3773    1.4203   53.1869 C.3     1  ZINC000893400114    0.1400
     23 H23        -8.3281    1.6299   52.6968 H       1  ZINC000893400114    0.0800
     24 C24        -7.0705    2.5182   54.2073 C.3     1  ZINC000893400114   -0.1200
     25 C25        -8.0562    2.4208   55.3734 C.3     1  ZINC000893400114    0.0700
     26 H26        -9.0069    2.0203   55.0213 H       1  ZINC000893400114    0.0800
     27 C27        -8.2739    3.8178   55.9934 C.3     1  ZINC000893400114   -0.1500
     28 C28        -8.3386    3.4981   57.5117 C.3     1  ZINC000893400114   -0.1600
     29 C29        -7.3356    2.3209   57.6075 C.3     1  ZINC000893400114    0.0500
     30 O30        -7.5192    1.5711   56.3939 O.3     1  ZINC000893400114   -0.3800
     31 H31        -4.3696    1.5093   50.5613 H       1  ZINC000893400114    0.4000
     32 H32        -3.6652    3.1925   48.9618 H       1  ZINC000893400114    0.1000
     33 H33        -2.6054    4.5397   49.4959 H       1  ZINC000893400114    0.1000
     34 H34        -1.9582    1.5915   49.1998 H       1  ZINC000893400114    0.0700
     35 H35        -0.8967    3.0093   48.9486 H       1  ZINC000893400114    0.0800
     36 H36         0.1106    1.4431   52.2841 H       1  ZINC000893400114    0.0900
     37 H37         0.0099    0.1204   50.2065 H       1  ZINC000893400114    0.0800
     38 H38         0.6624    1.4943   49.2798 H       1  ZINC000893400114    0.0900
     39 H39         2.0792    0.0133   51.5429 H       1  ZINC000893400114    0.0500
     40 H40         2.4656   -0.1034   49.8091 H       1  ZINC000893400114    0.1000
     41 H41         2.5312    2.1061   52.6914 H       1  ZINC000893400114    0.0500
     42 H42         3.2332    3.4506   51.7594 H       1  ZINC000893400114    0.1000
     43 H43         1.1359    3.6865   50.4827 H       1  ZINC000893400114    0.0900
     44 H44         0.8060    3.8059   52.2289 H       1  ZINC000893400114    0.0700
     45 H45        -7.1468    0.3226   50.5510 H       1  ZINC000893400114    0.0800
     46 H46        -5.3707    0.2308   50.6717 H       1  ZINC000893400114    0.0800
     47 H47        -6.5617   -1.9037   51.3590 H       1  ZINC000893400114    0.1100
     48 H48        -5.5193   -1.2149   52.6281 H       1  ZINC000893400114    0.0500
     49 H49        -8.3236    0.0405   54.5445 H       1  ZINC000893400114    0.1300
     50 H50        -6.5478   -0.0801   54.4875 H       1  ZINC000893400114    0.0500
     51 H51        -6.0537    2.3942   54.5798 H       1  ZINC000893400114    0.0800
     52 H52        -7.1664    3.4940   53.7310 H       1  ZINC000893400114    0.1100
     53 H53        -7.4340    4.4760   55.7709 H       1  ZINC000893400114    0.0800
     54 H54        -9.2116    4.2535   55.6484 H       1  ZINC000893400114    0.0800
     55 H55        -8.0047    4.3481   58.1068 H       1  ZINC000893400114    0.0800
     56 H56        -9.3408    3.1851   57.8050 H       1  ZINC000893400114    0.0800
     57 H57        -6.3147    2.6979   57.6693 H       1  ZINC000893400114    0.0600
     58 H58        -7.5632    1.6993   58.4734 H       1  ZINC000893400114    0.0800
@<TRIPOS>BOND
     1     1     2    2
     2     2     3   am
     3     2    17   am
     4     3     4    1
     5     3    31    1
     6     4     5    1
     7     4    15    1
     8     4     6    1
     9     6     7    1
    10     6    32    1
    11     6    33    1
    12     7     8    1
    13     7    34    1
    14     7    35    1
    15     8     9    1
    16     8    15   am
    17     9    14    1
    18     9    10    1
    19     9    36    1
    20    10    11    1
    21    10    37    1
    22    10    38    1
    23    11    12    1
    24    11    39    1
    25    11    40    1
    26    12    13    1
    27    13    14    1
    28    13    41    1
    29    13    42    1
    30    14    43    1
    31    14    44    1
    32    15    16    2
    33    17    22    1
    34    17    18    1
    35    18    19    1
    36    18    45    1
    37    18    46    1
    38    19    20    1
    39    19    47    1
    40    19    48    1
    41    20    21    1
    42    21    22    1
    43    21    49    1
    44    21    50    1
    45    22    23    1
    46    22    24    1
    47    24    25    1
    48    24    51    1
    49    24    52    1
    50    25    26    1
    51    25    30    1
    52    25    27    1
    53    27    28    1
    54    27    53    1
    55    27    54    1
    56    28    29    1
    57    28    55    1
    58    28    56    1
    59    29    30    1
    60    29    57    1
    61    29    58    1
@<TRIPOS>SUBSTRUCTURE
     1 ZINC000893400114        1 TEMP              0 ****  ****    0 ROOT


##########                                Name:    ZINC000543020509
##########                DOCK_Rotatable_Bonds:                   5
##########                         Heavy_Atoms:                  26
##########                    Molecular_Weight:              366.81
##########                DOCK_Rotatable_Bonds:                   5
##########                       Formal_Charge:               -0.02
##########                     HBond_Acceptors:                   8
##########                        HBond_Donors:                   1
##########                         Heavy_Atoms:                  26
##########                          Grid_Score:          -28.605087
##########                     Grid_vdw_energy:          -29.744373
##########                      Grid_es_energy:            1.139285
##########           Internal_energy_repulsive:           23.050606

@<TRIPOS>MOLECULE
ZINC000543020509
 41 43 1 0 0
SMALL
USER_CHARGES


@<TRIPOS>ATOM
      1 C1         -1.5362   -0.8172   46.4439 C.3     1  ZINC000543020509    0.0800
      2 N2         -0.8592    0.4818   46.4677 N.pl3   1  ZINC000543020509   -0.6200
      3 C3          0.2784    0.7313   45.5790 C.3     1  ZINC000543020509    0.0900
      4 C4         -1.2970    1.4791   47.3344 C.ar    1  ZINC000543020509    0.2500
      5 C5         -0.7819    2.7718   47.2545 C.ar    1  ZINC000543020509   -0.2200
      6 C6         -1.2403    3.7375   48.1315 C.ar    1  ZINC000543020509    0.1400
      7 N7         -2.1527    3.4530   49.0366 N.ar    1  ZINC000543020509   -0.5000
      8 C8         -2.6718    2.2351   49.1494 C.ar    1  ZINC000543020509    0.1100
      9 C9         -3.6966    1.9674   50.1851 C.2     1  ZINC000543020509    0.5900
     10 O10        -4.1263    0.8409   50.3379 O.2     1  ZINC000543020509   -0.5000
     11 N11        -4.1526    2.9731   50.9578 N.am    1  ZINC000543020509   -0.6200
     12 C12        -5.1195    2.7198   51.9374 C.2     1  ZINC000543020509    0.3200
     13 N13        -5.7353    1.5775   52.1337 N.2     1  ZINC000543020509   -0.3100
     14 N14        -6.6232    1.7372   53.2055 N.pl3   1  ZINC000543020509   -0.3300
     15 C15        -7.4662    0.7534   53.7281 C.ar    1  ZINC000543020509    0.2200
     16 C16        -7.6873    0.6801   55.0954 C.ar    1  ZINC000543020509   -0.1300
     17 C17        -8.5212   -0.2930   55.6109 C.ar    1  ZINC000543020509   -0.0500
     18 C18        -9.1420   -1.2021   54.7692 C.ar    1  ZINC000543020509   -0.0600
     19 Cl19      -10.1871   -2.4195   55.4320 Cl      1  ZINC000543020509   -0.0500
     20 C20        -8.9334   -1.1434   53.4062 C.ar    1  ZINC000543020509   -0.0400
     21 C21        -8.0973   -0.1613   52.8716 C.ar    1  ZINC000543020509   -0.0200
     22 C22        -7.8765   -0.0948   51.4584 C.1     1  ZINC000543020509    0.2500
     23 N23        -7.7014   -0.0420   50.3371 N.1     1  ZINC000543020509   -0.3800
     24 C24        -6.5193    3.0179   53.6472 C.2     1  ZINC000543020509    0.0700
     25 C25        -5.5944    3.6430   52.8846 C.2     1  ZINC000543020509   -0.2400
     26 C26        -2.2664    1.2112   48.3009 C.ar    1  ZINC000543020509   -0.1800
     27 H27        -1.0626   -1.4869   47.1618 H       1  ZINC000543020509    0.0600
     28 H28        -2.5855   -0.6850   46.7078 H       1  ZINC000543020509    0.0700
     29 H29        -1.4642   -1.2463   45.4445 H       1  ZINC000543020509    0.0700
     30 H30         0.4731   -0.1581   44.9795 H       1  ZINC000543020509    0.0800
     31 H31         0.0489    1.5696   44.9214 H       1  ZINC000543020509    0.0600
     32 H32         1.1599    0.9678   46.1750 H       1  ZINC000543020509    0.0600
     33 H33        -0.0328    3.0163   46.5160 H       1  ZINC000543020509    0.1400
     34 H34        -0.8435    4.7402   48.0731 H       1  ZINC000543020509    0.1700
     35 H35        -3.8104    3.8724   50.8351 H       1  ZINC000543020509    0.4300
     36 H36        -7.2068    1.3849   55.7578 H       1  ZINC000543020509    0.1500
     37 H37        -8.6898   -0.3460   56.6764 H       1  ZINC000543020509    0.1500
     38 H38        -9.4192   -1.8538   52.7538 H       1  ZINC000543020509    0.1500
     39 H39        -7.0732    3.4568   54.4639 H       1  ZINC000543020509    0.1900
     40 H40        -5.2807    4.6718   52.9818 H       1  ZINC000543020509    0.1800
     41 H41        -2.6897    0.2219   48.3938 H       1  ZINC000543020509    0.1500
@<TRIPOS>BOND
     1     1     2    1
     2     1    27    1
     3     1    28    1
     4     1    29    1
     5     2     3    1
     6     2     4    1
     7     3    30    1
     8     3    31    1
     9     3    32    1
    10     4    26   ar
    11     4     5   ar
    12     5     6   ar
    13     5    33    1
    14     6     7   ar
    15     6    34    1
    16     7     8   ar
    17     8     9    1
    18     8    26   ar
    19     9    10    2
    20     9    11   am
    21    11    12    1
    22    11    35    1
    23    12    25    1
    24    12    13    2
    25    13    14    1
    26    14    15    1
    27    14    24    1
    28    15    21   ar
    29    15    16   ar
    30    16    17   ar
    31    16    36    1
    32    17    18   ar
    33    17    37    1
    34    18    19    1
    35    18    20   ar
    36    20    21   ar
    37    20    38    1
    38    21    22    1
    39    22    23    3
    40    24    25    2
    41    24    39    1
    42    25    40    1
    43    26    41    1
@<TRIPOS>SUBSTRUCTURE
     1 ZINC000543020509        1 TEMP              0 ****  ****    0 ROOT


##########                                Name:    ZINC000274225049
##########                DOCK_Rotatable_Bonds:                   6
##########                         Heavy_Atoms:                  25
##########                    Molecular_Weight:             380.895
##########                DOCK_Rotatable_Bonds:                   6
##########                       Formal_Charge:           0.0200006
##########                     HBond_Acceptors:                   7
##########                        HBond_Donors:                   2
##########                         Heavy_Atoms:                  25
##########                          Grid_Score:          -28.519333
##########                     Grid_vdw_energy:          -28.372490
##########                      Grid_es_energy:           -0.146843
##########           Internal_energy_repulsive:           12.170560

@<TRIPOS>MOLECULE
ZINC000274225049
 46 48 1 0 0
SMALL
USER_CHARGES


@<TRIPOS>ATOM
      1 C1         -3.3331    4.0417   49.1247 C.3     1  ZINC000274225049   -0.1600
      2 C2         -3.4585    2.6530   49.7543 C.3     1  ZINC000274225049    0.2000
      3 H3         -3.9441    1.9773   49.0501 H       1  ZINC000274225049    0.1100
      4 N4         -4.2597    2.7418   50.9775 N.am    1  ZINC000274225049   -0.7400
      5 C5         -4.9552    1.6702   51.4069 C.2     1  ZINC000274225049    0.7100
      6 O6         -4.9165    0.6293   50.7797 O.2     1  ZINC000274225049   -0.5800
      7 N7         -5.6936    1.7524   52.5313 N.am    1  ZINC000274225049   -0.7500
      8 C8         -6.4482    0.5871   52.9990 C.3     1  ZINC000274225049    0.1500
      9 C9         -7.8696    0.6400   52.4352 C.3     1  ZINC000274225049   -0.1000
     10 H10        -7.8374    0.7863   51.3555 H       1  ZINC000274225049    0.1000
     11 C11        -8.6574    1.7832   53.0987 C.3     1  ZINC000274225049   -0.1100
     12 C12       -10.1544    1.6041   52.7764 C.3     1  ZINC000274225049   -0.5900
     13 S13       -10.3779   -0.1956   52.5374 S.o2    1  ZINC000274225049    2.3900
     14 O14       -11.1550   -0.7196   53.6054 O.2     1  ZINC000274225049   -0.9300
     15 O15       -10.7615   -0.4481   51.1927 O.2     1  ZINC000274225049   -0.9300
     16 C16        -8.6232   -0.6728   52.7709 C.3     1  ZINC000274225049   -0.5900
     17 C17        -2.0864    2.1276   50.0894 C.ar    1  ZINC000274225049   -0.0700
     18 C18        -1.3899    1.3316   49.1646 C.ar    1  ZINC000274225049   -0.0300
     19 C19        -1.9470    1.0070   47.9158 C.ar    1  ZINC000274225049   -0.1100
     20 C20        -1.2429    0.2338   47.0450 C.ar    1  ZINC000274225049   -0.1100
     21 C21         0.0253   -0.2430   47.3721 C.ar    1  ZINC000274225049   -0.1100
     22 C22         0.5964    0.0510   48.5720 C.ar    1  ZINC000274225049   -0.1000
     23 C23        -0.1002    0.8468   49.4972 C.ar    1  ZINC000274225049   -0.0400
     24 C24         0.4572    1.1721   50.7465 C.ar    1  ZINC000274225049   -0.0300
     25 Cl25        2.0356    0.5907   51.1761 Cl      1  ZINC000274225049   -0.0600
     26 C26        -0.2481    1.9466   51.6177 C.ar    1  ZINC000274225049   -0.1000
     27 C27        -1.5134    2.4268   51.2877 C.ar    1  ZINC000274225049   -0.1000
     28 H28        -4.3255    4.4217   48.8821 H       1  ZINC000274225049    0.0700
     29 H29        -2.8475    4.7174   49.8288 H       1  ZINC000274225049    0.0700
     30 H30        -2.7370    3.9756   48.2145 H       1  ZINC000274225049    0.0800
     31 H31        -4.2897    3.5719   51.4784 H       1  ZINC000274225049    0.4000
     32 H32        -5.7255    2.5833   53.0309 H       1  ZINC000274225049    0.4000
     33 H33        -5.9563   -0.3245   52.6594 H       1  ZINC000274225049    0.0800
     34 H34        -6.4889    0.5939   54.0882 H       1  ZINC000274225049    0.0800
     35 H35        -8.5088    1.7525   54.1781 H       1  ZINC000274225049    0.0900
     36 H36        -8.3109    2.7408   52.7101 H       1  ZINC000274225049    0.0900
     37 H37       -10.7652    1.9541   53.6084 H       1  ZINC000274225049    0.1400
     38 H38       -10.4121    2.1418   51.8640 H       1  ZINC000274225049    0.1400
     39 H39        -8.3434   -1.4682   52.0804 H       1  ZINC000274225049    0.1400
     40 H40        -8.4375   -0.9715   53.8026 H       1  ZINC000274225049    0.1400
     41 H41        -2.9288    1.3691   47.6488 H       1  ZINC000274225049    0.1300
     42 H42        -1.6734   -0.0145   46.0861 H       1  ZINC000274225049    0.1300
     43 H43         0.5627   -0.8551   46.6630 H       1  ZINC000274225049    0.1300
     44 H44         1.5797   -0.3257   48.8120 H       1  ZINC000274225049    0.1300
     45 H45         0.1818    2.1950   52.5768 H       1  ZINC000274225049    0.1300
     46 H46        -2.0515    3.0388   51.9964 H       1  ZINC000274225049    0.1300
@<TRIPOS>BOND
     1     1     2    1
     2     1    28    1
     3     1    29    1
     4     1    30    1
     5     2     3    1
     6     2     4    1
     7     2    17    1
     8     4     5   am
     9     4    31    1
    10     5     6    2
    11     5     7   am
    12     7     8    1
    13     7    32    1
    14     8     9    1
    15     8    33    1
    16     8    34    1
    17     9    10    1
    18     9    16    1
    19     9    11    1
    20    11    12    1
    21    11    35    1
    22    11    36    1
    23    12    13    1
    24    12    37    1
    25    12    38    1
    26    13    14    2
    27    13    15    2
    28    13    16    1
    29    16    39    1
    30    16    40    1
    31    17    27   ar
    32    17    18   ar
    33    18    23   ar
    34    18    19   ar
    35    19    20   ar
    36    19    41    1
    37    20    21   ar
    38    20    42    1
    39    21    22   ar
    40    21    43    1
    41    22    23   ar
    42    22    44    1
    43    23    24   ar
    44    24    25    1
    45    24    26   ar
    46    26    27   ar
    47    26    45    1
    48    27    46    1
@<TRIPOS>SUBSTRUCTURE
     1 ZINC000274225049        1 TEMP              0 ****  ****    0 ROOT


##########                                Name:    ZINC000245764166
##########                DOCK_Rotatable_Bonds:                   8
##########                         Heavy_Atoms:                  26
##########                    Molecular_Weight:             359.512
##########                DOCK_Rotatable_Bonds:                   8
##########                       Formal_Charge:          -0.0100008
##########                     HBond_Acceptors:                   5
##########                        HBond_Donors:                   2
##########                         Heavy_Atoms:                  26
##########                          Grid_Score:          -28.518906
##########                     Grid_vdw_energy:          -28.502657
##########                      Grid_es_energy:           -0.016249
##########           Internal_energy_repulsive:           35.889290

@<TRIPOS>MOLECULE
ZINC000245764166
 59 61 1 0 0
SMALL
USER_CHARGES


@<TRIPOS>ATOM
      1 C1         -8.2603   -1.4340   60.2682 C.3     1  ZINC000245764166    0.0200
      2 N2         -9.6710   -1.7692   60.5044 N.3     1  ZINC000245764166   -0.5300
      3 C3        -10.0453   -1.5164   61.9023 C.3     1  ZINC000245764166    0.0600
      4 C4         -9.3570   -0.2670   62.3885 C.ar    1  ZINC000245764166   -0.0800
      5 C5         -8.2983   -0.3606   63.2725 C.ar    1  ZINC000245764166   -0.1000
      6 C6         -7.6670    0.7853   63.7186 C.ar    1  ZINC000245764166   -0.1200
      7 C7         -8.0938    2.0249   63.2802 C.ar    1  ZINC000245764166   -0.1200
      8 C8         -9.1519    2.1185   62.3955 C.ar    1  ZINC000245764166   -0.1200
      9 C9         -9.7805    0.9722   61.9461 C.ar    1  ZINC000245764166   -0.1200
     10 C10       -10.5480   -1.0341   59.5834 C.3     1  ZINC000245764166    0.0500
     11 C11       -11.2376   -2.0210   58.6391 C.3     1  ZINC000245764166    0.1900
     12 C12       -10.4022   -3.2988   58.5380 C.3     1  ZINC000245764166   -0.1600
     13 C13       -12.6266   -2.3614   59.1828 C.3     1  ZINC000245764166   -0.1500
     14 N14       -11.3678   -1.4163   57.3111 N.am    1  ZINC000245764166   -0.7400
     15 C15       -10.2695   -1.0030   56.6482 C.2     1  ZINC000245764166    0.7000
     16 O16        -9.1707   -1.1307   57.1530 O.2     1  ZINC000245764166   -0.5800
     17 N17       -10.3891   -0.4482   55.4258 N.am    1  ZINC000245764166   -0.7500
     18 C18        -9.1953    0.0026   54.7060 C.3     1  ZINC000245764166    0.1800
     19 H19        -8.4221   -0.7621   54.7794 H       1  ZINC000245764166    0.0900
     20 C20        -8.6855    1.2951   55.3385 C.3     1  ZINC000245764166   -0.1300
     21 C21        -7.4037    1.7214   54.6144 C.3     1  ZINC000245764166   -0.1100
     22 C22        -7.7525    2.0256   53.1576 C.3     1  ZINC000245764166   -0.1100
     23 C23        -8.3505    0.8199   52.4714 C.3     1  ZINC000245764166    0.0900
     24 H24        -8.6916    1.1098   51.4776 H       1  ZINC000245764166    0.0600
     25 O25        -7.4277   -0.2706   52.3466 O.3     1  ZINC000245764166   -0.3600
     26 C26        -8.2191   -1.4312   52.0238 C.3     1  ZINC000245764166    0.0500
     27 C27        -9.6363   -1.1901   52.5824 C.3     1  ZINC000245764166   -0.1500
     28 C28        -9.5482    0.2224   53.2334 C.3     1  ZINC000245764166   -0.1300
     29 H29       -10.4603    0.8037   53.0987 H       1  ZINC000245764166    0.1000
     30 H30        -7.6318   -2.0047   60.9518 H       1  ZINC000245764166    0.0800
     31 H31        -7.9956   -1.6801   59.2400 H       1  ZINC000245764166    0.0700
     32 H32        -8.1068   -0.3681   60.4378 H       1  ZINC000245764166    0.0200
     33 H33       -11.1253   -1.3865   61.9714 H       1  ZINC000245764166    0.0400
     34 H34        -9.7409   -2.3622   62.5187 H       1  ZINC000245764166    0.1100
     35 H35        -7.9648   -1.3291   63.6150 H       1  ZINC000245764166    0.1200
     36 H36        -6.8403    0.7123   64.4098 H       1  ZINC000245764166    0.1200
     37 H37        -7.6010    2.9202   63.6293 H       1  ZINC000245764166    0.1200
     38 H38        -9.4856    3.0869   62.0533 H       1  ZINC000245764166    0.1200
     39 H39       -10.6070    1.0453   61.2549 H       1  ZINC000245764166    0.1200
     40 H40       -11.3010   -0.4909   60.1544 H       1  ZINC000245764166    0.0400
     41 H41        -9.9546   -0.3289   59.0015 H       1  ZINC000245764166    0.1000
     42 H42       -10.3054   -3.7486   59.5261 H       1  ZINC000245764166    0.0700
     43 H43       -10.8934   -4.0018   57.8653 H       1  ZINC000245764166    0.0800
     44 H44        -9.4126   -3.0562   58.1507 H       1  ZINC000245764166    0.0500
     45 H45       -13.2608   -1.4759   59.1396 H       1  ZINC000245764166    0.0600
     46 H46       -13.0685   -3.1546   58.5797 H       1  ZINC000245764166    0.0800
     47 H47       -12.5401   -2.6964   60.2165 H       1  ZINC000245764166    0.0600
     48 H48       -12.2444   -1.3134   56.9088 H       1  ZINC000245764166    0.3900
     49 H49       -11.2655   -0.3475   55.0225 H       1  ZINC000245764166    0.3900
     50 H50        -9.4402    2.0749   55.2363 H       1  ZINC000245764166    0.0600
     51 H51        -8.4707    1.1262   56.3936 H       1  ZINC000245764166    0.0700
     52 H52        -6.9939    2.6137   55.0878 H       1  ZINC000245764166    0.0700
     53 H53        -6.6724    0.9142   54.6561 H       1  ZINC000245764166    0.0700
     54 H54        -8.4696    2.8458   53.1262 H       1  ZINC000245764166    0.0800
     55 H55        -6.8472    2.3243   52.6289 H       1  ZINC000245764166    0.0700
     56 H56        -8.2641   -1.5599   50.9424 H       1  ZINC000245764166    0.0600
     57 H57        -7.7841   -2.3170   52.4866 H       1  ZINC000245764166    0.0800
     58 H58       -10.3706   -1.1943   51.7770 H       1  ZINC000245764166    0.0800
     59 H59        -9.8849   -1.9416   53.3317 H       1  ZINC000245764166    0.0800
@<TRIPOS>BOND
     1     1     2    1
     2     1    30    1
     3     1    31    1
     4     1    32    1
     5     2     3    1
     6     2    10    1
     7     3     4    1
     8     3    33    1
     9     3    34    1
    10     4     9   ar
    11     4     5   ar
    12     5     6   ar
    13     5    35    1
    14     6     7   ar
    15     6    36    1
    16     7     8   ar
    17     7    37    1
    18     8     9   ar
    19     8    38    1
    20     9    39    1
    21    10    11    1
    22    10    40    1
    23    10    41    1
    24    11    12    1
    25    11    13    1
    26    11    14    1
    27    12    42    1
    28    12    43    1
    29    12    44    1
    30    13    45    1
    31    13    46    1
    32    13    47    1
    33    14    15   am
    34    14    48    1
    35    15    16    2
    36    15    17   am
    37    17    18    1
    38    17    49    1
    39    18    19    1
    40    18    28    1
    41    18    20    1
    42    20    21    1
    43    20    50    1
    44    20    51    1
    45    21    22    1
    46    21    52    1
    47    21    53    1
    48    22    23    1
    49    22    54    1
    50    22    55    1
    51    23    24    1
    52    23    28    1
    53    23    25    1
    54    25    26    1
    55    26    27    1
    56    26    56    1
    57    26    57    1
    58    27    28    1
    59    27    58    1
    60    27    59    1
    61    28    29    1
@<TRIPOS>SUBSTRUCTURE
     1 ZINC000245764166        1 TEMP              0 ****  ****    0 ROOT


##########                                Name:    ZINC000077537368
##########                DOCK_Rotatable_Bonds:                   5
##########                         Heavy_Atoms:                  27
##########                    Molecular_Weight:             365.478
##########                DOCK_Rotatable_Bonds:                   5
##########                       Formal_Charge:          -0.0400007
##########                     HBond_Acceptors:                   6
##########                        HBond_Donors:                   0
##########                         Heavy_Atoms:                  27
##########                          Grid_Score:          -28.512257
##########                     Grid_vdw_energy:          -27.561357
##########                      Grid_es_energy:           -0.950898
##########           Internal_energy_repulsive:           11.011415

@<TRIPOS>MOLECULE
ZINC000077537368
 54 56 1 0 0
SMALL
USER_CHARGES


@<TRIPOS>ATOM
      1 C1        -14.2825   -1.5383   56.4010 C.3     1  ZINC000077537368    0.0800
      2 N2        -13.0250   -1.3864   55.6649 N.pl3   1  ZINC000077537368   -0.2600
      3 N3        -12.8861   -0.7433   54.5617 N.2     1  ZINC000077537368   -0.2700
      4 C4        -11.6450   -0.7857   54.1491 C.2     1  ZINC000077537368    0.0400
      5 C5        -11.1041   -0.1461   52.8964 C.3     1  ZINC000077537368    0.0200
      6 C6        -12.2004   -0.1059   51.8300 C.3     1  ZINC000077537368   -0.1400
      7 C7        -10.6443    1.2793   53.2092 C.3     1  ZINC000077537368   -0.1400
      8 C8         -9.9181   -0.9622   52.3782 C.3     1  ZINC000077537368   -0.1400
      9 C9        -10.9105   -1.5286   55.0762 C.2     1  ZINC000077537368   -0.2000
     10 C10       -11.8201   -1.9020   56.0501 C.2     1  ZINC000077537368   -0.0400
     11 C11       -11.5462   -2.7020   57.2546 C.2     1  ZINC000077537368    0.5900
     12 O12       -11.6678   -3.9117   57.2218 O.2     1  ZINC000077537368   -0.5400
     13 N13       -11.1607   -2.0940   58.3940 N.am    1  ZINC000077537368   -0.6000
     14 C14       -10.8761   -2.8750   59.6074 C.3     1  ZINC000077537368    0.0800
     15 C15        -9.5007   -2.4609   60.1413 C.3     1  ZINC000077537368    0.0400
     16 N16        -9.4664   -1.0030   60.3186 N.3     1  ZINC000077537368   -0.5300
     17 C17        -8.2286   -0.5833   60.9892 C.3     1  ZINC000077537368    0.0900
     18 C18        -8.5460   -0.1272   62.3900 C.ar    1  ZINC000077537368   -0.0500
     19 C19        -7.7695   -0.5637   63.4488 C.ar    1  ZINC000077537368   -0.1200
     20 C20        -8.0546   -0.1503   64.7337 C.ar    1  ZINC000077537368   -0.0700
     21 C21        -9.1294    0.7107   64.9643 C.ar    1  ZINC000077537368   -0.0300
     22 C22        -9.4309    1.1442   66.2954 C.1     1  ZINC000077537368    0.2500
     23 N23        -9.6701    1.4880   67.3514 N.1     1  ZINC000077537368   -0.4100
     24 C24        -9.9085    1.1475   63.8911 C.ar    1  ZINC000077537368   -0.0700
     25 C25        -9.6089    0.7306   62.6107 C.ar    1  ZINC000077537368   -0.1000
     26 C26        -9.6327   -0.3062   59.0361 C.3     1  ZINC000077537368    0.0400
     27 C27       -11.0076   -0.6325   58.4552 C.3     1  ZINC000077537368    0.1200
     28 H28       -14.3451   -0.7735   57.1751 H       1  ZINC000077537368    0.0800
     29 H29       -15.1213   -1.4289   55.7136 H       1  ZINC000077537368    0.1000
     30 H30       -14.3168   -2.5254   56.8618 H       1  ZINC000077537368    0.1100
     31 H31       -13.0453    0.4755   52.1993 H       1  ZINC000077537368    0.0600
     32 H32       -11.8091    0.3568   50.9239 H       1  ZINC000077537368    0.0600
     33 H33       -12.5278   -1.1213   51.6071 H       1  ZINC000077537368    0.0600
     34 H34        -9.8633    1.2507   53.9690 H       1  ZINC000077537368    0.0600
     35 H35       -10.2531    1.7420   52.3032 H       1  ZINC000077537368    0.0600
     36 H36       -11.4892    1.8607   53.5785 H       1  ZINC000077537368    0.0600
     37 H37       -10.2456   -1.9777   52.1553 H       1  ZINC000077537368    0.0600
     38 H38        -9.5269   -0.4995   51.4721 H       1  ZINC000077537368    0.0600
     39 H39        -9.1370   -0.9908   53.1379 H       1  ZINC000077537368    0.0600
     40 H40        -9.8559   -1.7594   55.0423 H       1  ZINC000077537368    0.1700
     41 H41       -11.6375   -2.6719   60.3605 H       1  ZINC000077537368    0.0800
     42 H42       -10.8703   -3.9378   59.3658 H       1  ZINC000077537368    0.1200
     43 H43        -9.3208   -2.9482   61.0995 H       1  ZINC000077537368    0.0900
     44 H44        -8.7298   -2.7591   59.4306 H       1  ZINC000077537368    0.0400
     45 H45        -7.5344   -1.4226   61.0289 H       1  ZINC000077537368    0.0900
     46 H46        -7.7750    0.2376   60.4339 H       1  ZINC000077537368    0.0500
     47 H47        -6.9385   -1.2297   63.2690 H       1  ZINC000077537368    0.1300
     48 H48        -7.4482   -0.4923   65.5594 H       1  ZINC000077537368    0.1300
     49 H49       -10.7411    1.8136   64.0625 H       1  ZINC000077537368    0.1300
     50 H50       -10.2105    1.0680   61.7796 H       1  ZINC000077537368    0.1400
     51 H51        -9.5485    0.7692   59.1929 H       1  ZINC000077537368    0.1000
     52 H52        -8.8601   -0.6344   58.3410 H       1  ZINC000077537368    0.0400
     53 H53       -11.0910   -0.2117   57.4532 H       1  ZINC000077537368    0.1000
     54 H54       -11.7843   -0.2155   59.0963 H       1  ZINC000077537368    0.0800
@<TRIPOS>BOND
     1     1     2    1
     2     1    28    1
     3     1    29    1
     4     1    30    1
     5     2    10    1
     6     2     3    1
     7     3     4    2
     8     4     5    1
     9     4     9    1
    10     5     6    1
    11     5     7    1
    12     5     8    1
    13     6    31    1
    14     6    32    1
    15     6    33    1
    16     7    34    1
    17     7    35    1
    18     7    36    1
    19     8    37    1
    20     8    38    1
    21     8    39    1
    22     9    10    2
    23     9    40    1
    24    10    11    1
    25    11    12    2
    26    11    13   am
    27    13    27    1
    28    13    14    1
    29    14    15    1
    30    14    41    1
    31    14    42    1
    32    15    16    1
    33    15    43    1
    34    15    44    1
    35    16    17    1
    36    16    26    1
    37    17    18    1
    38    17    45    1
    39    17    46    1
    40    18    25   ar
    41    18    19   ar
    42    19    20   ar
    43    19    47    1
    44    20    21   ar
    45    20    48    1
    46    21    22    1
    47    21    24   ar
    48    22    23    3
    49    24    25   ar
    50    24    49    1
    51    25    50    1
    52    26    27    1
    53    26    51    1
    54    26    52    1
    55    27    53    1
    56    27    54    1
@<TRIPOS>SUBSTRUCTURE
     1 ZINC000077537368        1 TEMP              0 ****  ****    0 ROOT


##########                                Name:    ZINC000609484313
##########                DOCK_Rotatable_Bonds:                  10
##########                         Heavy_Atoms:                  26
##########                    Molecular_Weight:             361.487
##########                DOCK_Rotatable_Bonds:                  10
##########                       Formal_Charge:          -0.0200004
##########                     HBond_Acceptors:                   7
##########                        HBond_Donors:                   1
##########                         Heavy_Atoms:                  26
##########                          Grid_Score:          -28.505936
##########                     Grid_vdw_energy:          -29.200411
##########                      Grid_es_energy:            0.694476
##########           Internal_energy_repulsive:           41.360069

@<TRIPOS>MOLECULE
ZINC000609484313
 57 58 1 0 0
SMALL
USER_CHARGES


@<TRIPOS>ATOM
      1 C1         -8.6030    0.0243   60.5689 C.3     1  ZINC000609484313   -0.1500
      2 C2         -8.7945   -1.4811   60.7639 C.3     1  ZINC000609484313   -0.1300
      3 C3         -9.1879   -2.1220   59.4315 C.3     1  ZINC000609484313   -0.1100
      4 C4        -10.6854   -1.9205   59.1911 C.3     1  ZINC000609484313   -0.1100
      5 C5        -11.1344   -2.7887   58.0140 C.3     1  ZINC000609484313    0.0800
      6 H6        -10.7261   -3.7929   58.1266 H       1  ZINC000609484313    0.1200
      7 C7        -12.6395   -2.8584   57.9864 C.2     1  ZINC000609484313    0.4900
      8 O8        -13.1936   -3.7851   57.4342 O.2     1  ZINC000609484313   -0.5000
      9 N9        -13.3698   -1.8908   58.5755 N.am    1  ZINC000609484313   -0.6300
     10 C10       -14.7631   -1.9563   58.5514 C.2     1  ZINC000609484313    0.2400
     11 N11       -15.4955   -2.8886   58.0008 N.2     1  ZINC000609484313   -0.3900
     12 O12       -16.6755   -2.6680   58.1458 O.3     1  ZINC000609484313    0.1000
     13 C13       -16.8886   -1.5334   58.8279 C.2     1  ZINC000609484313   -0.0200
     14 C14       -18.2246   -0.9420   59.1972 C.3     1  ZINC000609484313   -0.0800
     15 C15       -15.6704   -1.0266   59.1256 C.2     1  ZINC000609484313   -0.2300
     16 N16       -10.6485   -2.2005   56.7585 N.3     1  ZINC000609484313   -0.5000
     17 C17       -11.5411   -1.1272   56.2995 C.3     1  ZINC000609484313    0.0400
     18 C18       -10.9595   -0.4890   55.0359 C.3     1  ZINC000609484313    0.0500
     19 N19       -10.8013   -1.5181   53.9989 N.3     1  ZINC000609484313   -0.5100
     20 C20       -10.3153   -0.9300   52.7434 C.3     1  ZINC000609484313    0.1800
     21 H21       -10.2013   -1.7142   51.9950 H       1  ZINC000609484313    0.1200
     22 C22       -11.2831    0.0698   52.2631 C.1     1  ZINC000609484313    0.1700
     23 N23       -12.0300    0.8413   51.8924 N.1     1  ZINC000609484313   -0.4200
     24 C24        -8.9635   -0.2558   52.9858 C.3     1  ZINC000609484313   -0.0800
     25 C25        -7.9096   -0.8828   52.0709 C.3     1  ZINC000609484313   -0.1400
     26 C26        -9.0776    1.2395   52.6823 C.3     1  ZINC000609484313   -0.1500
     27 C27        -9.9086   -2.5914   54.4578 C.3     1  ZINC000609484313    0.0500
     28 C28       -10.4903   -3.2296   55.7214 C.3     1  ZINC000609484313    0.0400
     29 H29        -7.8155    0.1982   59.8356 H       1  ZINC000609484313    0.0500
     30 H30        -9.5340    0.4661   60.2140 H       1  ZINC000609484313    0.0500
     31 H31        -8.3227    0.4808   61.5182 H       1  ZINC000609484313    0.0500
     32 H32        -7.8635   -1.9229   61.1189 H       1  ZINC000609484313    0.0600
     33 H33        -9.5821   -1.6552   61.4973 H       1  ZINC000609484313    0.0600
     34 H34        -8.6242   -1.6558   58.6235 H       1  ZINC000609484313    0.0800
     35 H35        -8.9652   -3.1887   59.4617 H       1  ZINC000609484313    0.0600
     36 H36       -11.2388   -2.2068   60.0855 H       1  ZINC000609484313    0.0700
     37 H37       -10.8792   -0.8722   58.9641 H       1  ZINC000609484313    0.0800
     38 H38       -12.9266   -1.1491   59.0162 H       1  ZINC000609484313    0.4200
     39 H39       -19.0220   -1.5832   58.8215 H       1  ZINC000609484313    0.0800
     40 H40       -18.3006   -0.8653   60.2819 H       1  ZINC000609484313    0.0900
     41 H41       -18.3175    0.0501   58.7553 H       1  ZINC000609484313    0.0900
     42 H42       -15.4409   -0.1213   59.6677 H       1  ZINC000609484313    0.1900
     43 H43       -12.5244   -1.5419   56.0780 H       1  ZINC000609484313    0.0800
     44 H44       -11.6322   -0.3714   57.0798 H       1  ZINC000609484313    0.0800
     45 H45       -11.6345    0.2881   54.6772 H       1  ZINC000609484313    0.0900
     46 H46        -9.9881   -0.0504   55.2642 H       1  ZINC000609484313    0.0400
     47 H47        -8.6699   -0.3940   54.0263 H       1  ZINC000609484313    0.0800
     48 H48        -8.2032   -0.7446   51.0302 H       1  ZINC000609484313    0.0600
     49 H49        -6.9464   -0.4025   52.2435 H       1  ZINC000609484313    0.0500
     50 H50        -7.8282   -1.9480   52.2870 H       1  ZINC000609484313    0.0700
     51 H51        -8.0945    1.7029   52.7645 H       1  ZINC000609484313    0.0700
     52 H52        -9.4607    1.3769   51.6712 H       1  ZINC000609484313    0.0600
     53 H53        -9.7589    1.7039   53.3952 H       1  ZINC000609484313    0.0500
     54 H54        -9.8175   -3.3472   53.6776 H       1  ZINC000609484313    0.0900
     55 H55        -8.9252   -2.1767   54.6794 H       1  ZINC000609484313    0.0400
     56 H56        -9.8153   -4.0067   56.0801 H       1  ZINC000609484313    0.0800
     57 H57       -11.4617   -3.6682   55.4932 H       1  ZINC000609484313    0.0800
@<TRIPOS>BOND
     1     1     2    1
     2     1    29    1
     3     1    30    1
     4     1    31    1
     5     2     3    1
     6     2    32    1
     7     2    33    1
     8     3     4    1
     9     3    34    1
    10     3    35    1
    11     4     5    1
    12     4    36    1
    13     4    37    1
    14     5     6    1
    15     5     7    1
    16     5    16    1
    17     7     8    2
    18     7     9   am
    19     9    10    1
    20     9    38    1
    21    10    15    1
    22    10    11    2
    23    11    12    1
    24    12    13    1
    25    13    14    1
    26    13    15    2
    27    14    39    1
    28    14    40    1
    29    14    41    1
    30    15    42    1
    31    16    28    1
    32    16    17    1
    33    17    18    1
    34    17    43    1
    35    17    44    1
    36    18    19    1
    37    18    45    1
    38    18    46    1
    39    19    20    1
    40    19    27    1
    41    20    21    1
    42    20    22    1
    43    20    24    1
    44    22    23    3
    45    24    25    1
    46    24    26    1
    47    24    47    1
    48    25    48    1
    49    25    49    1
    50    25    50    1
    51    26    51    1
    52    26    52    1
    53    26    53    1
    54    27    28    1
    55    27    54    1
    56    27    55    1
    57    28    56    1
    58    28    57    1
@<TRIPOS>SUBSTRUCTURE
     1 ZINC000609484313        1 TEMP              0 ****  ****    0 ROOT


##########                                Name:    ZINC001013196242
##########                DOCK_Rotatable_Bonds:                   5
##########                         Heavy_Atoms:                  24
##########                    Molecular_Weight:              349.86
##########                DOCK_Rotatable_Bonds:                   5
##########                       Formal_Charge:        -3.05474e-07
##########                     HBond_Acceptors:                   6
##########                        HBond_Donors:                   1
##########                         Heavy_Atoms:                  24
##########                          Grid_Score:          -28.504688
##########                     Grid_vdw_energy:          -28.124306
##########                      Grid_es_energy:           -0.380382
##########           Internal_energy_repulsive:           10.487971

@<TRIPOS>MOLECULE
ZINC001013196242
 48 51 1 0 0
SMALL
USER_CHARGES


@<TRIPOS>ATOM
      1 C1         -4.8082    3.5785   54.9781 C.3     1  ZINC001013196242   -0.1600
      2 C2         -6.2536    3.4131   55.4516 C.3     1  ZINC001013196242    0.1400
      3 H3         -6.7858    4.3593   55.3549 H       1  ZINC001013196242    0.0800
      4 C4         -6.2739    2.9475   56.9229 C.3     1  ZINC001013196242   -0.1400
      5 C5         -7.4539    1.9404   56.9524 C.3     1  ZINC001013196242    0.1300
      6 H6         -8.4069    2.4582   57.0603 H       1  ZINC001013196242    0.1100
      7 N7         -7.2733    0.9511   58.0177 N.am    1  ZINC001013196242   -0.7200
      8 C8         -8.2706    0.0962   58.3195 C.2     1  ZINC001013196242    0.5400
      9 O9         -9.3168    0.1449   57.7080 O.2     1  ZINC001013196242   -0.5200
     10 C10        -8.0855   -0.9202   59.4165 C.3     1  ZINC001013196242   -0.1400
     11 C11        -8.8024   -0.5495   60.7268 C.3     1  ZINC001013196242   -0.0800
     12 C12       -10.0189   -1.3016   60.1762 C.3     1  ZINC001013196242   -0.1600
     13 C13       -11.2591   -1.7796   60.9229 C.3     1  ZINC001013196242   -0.1700
     14 C14       -11.3884   -0.7478   59.7991 C.3     1  ZINC001013196242   -0.1400
     15 C15        -9.0476   -2.1170   59.3158 C.3     1  ZINC001013196242   -0.0800
     16 C16        -7.3352    1.2813   55.5554 C.3     1  ZINC001013196242    0.0800
     17 N17        -6.9258    2.3775   54.6534 N.am    1  ZINC001013196242   -0.6000
     18 C18        -7.1331    2.4182   53.3223 C.2     1  ZINC001013196242    0.6100
     19 O19        -6.7493    3.3751   52.6757 O.2     1  ZINC001013196242   -0.5400
     20 C20        -7.8210    1.3092   52.6530 C.2     1  ZINC001013196242   -0.0400
     21 C21        -9.1846    1.1130   52.5940 C.2     1  ZINC001013196242   -0.1400
     22 C22        -9.4003   -0.0589   51.8613 C.2     1  ZINC001013196242   -0.1200
     23 Cl23      -10.9430   -0.7622   51.4887 Cl      1  ZINC001013196242   -0.0400
     24 C24        -8.1909   -0.5474   51.4936 C.2     1  ZINC001013196242    0.0400
     25 N25        -7.2232    0.2781   51.9645 N.pl3   1  ZINC001013196242   -0.4000
     26 C26        -5.7813    0.0978   51.7784 C.3     1  ZINC001013196242    0.0700
     27 H27        -4.8016    3.9019   53.9372 H       1  ZINC001013196242    0.0700
     28 H28        -4.3073    4.3256   55.5939 H       1  ZINC001013196242    0.0700
     29 H29        -4.2857    2.6259   55.0659 H       1  ZINC001013196242    0.0600
     30 H30        -5.3383    2.4531   57.1838 H       1  ZINC001013196242    0.0900
     31 H31        -6.4669    3.7873   57.5904 H       1  ZINC001013196242    0.0900
     32 H32        -6.4360    0.9114   58.5059 H       1  ZINC001013196242    0.4000
     33 H33        -7.0434   -1.2088   59.5544 H       1  ZINC001013196242    0.1000
     34 H34        -8.3648   -1.0135   61.6109 H       1  ZINC001013196242    0.1000
     35 H35        -8.9677    0.5211   60.8468 H       1  ZINC001013196242    0.0700
     36 H36       -11.6101   -2.7915   60.7203 H       1  ZINC001013196242    0.1000
     37 H37       -11.3970   -1.4298   61.9460 H       1  ZINC001013196242    0.0900
     38 H38       -11.6111    0.2807   60.0830 H       1  ZINC001013196242    0.0900
     39 H39       -11.8242   -1.0810   58.8572 H       1  ZINC001013196242    0.1000
     40 H40        -9.4097   -2.3031   58.3047 H       1  ZINC001013196242    0.0800
     41 H41        -8.6784   -3.0173   59.8071 H       1  ZINC001013196242    0.0900
     42 H42        -6.5785    0.4970   55.5691 H       1  ZINC001013196242    0.0800
     43 H43        -8.2979    0.8755   55.2445 H       1  ZINC001013196242    0.1000
     44 H44        -9.9433    1.7449   53.0317 H       1  ZINC001013196242    0.1600
     45 H45        -8.0248   -1.4451   50.9166 H       1  ZINC001013196242    0.1800
     46 H46        -5.4500    0.6820   50.9198 H       1  ZINC001013196242    0.0800
     47 H47        -5.2548    0.4341   52.6716 H       1  ZINC001013196242    0.1000
     48 H48        -5.5663   -0.9566   51.6052 H       1  ZINC001013196242    0.0900
@<TRIPOS>BOND
     1     1     2    1
     2     1    27    1
     3     1    28    1
     4     1    29    1
     5     2     3    1
     6     2    17    1
     7     2     4    1
     8     4     5    1
     9     4    30    1
    10     4    31    1
    11     5     6    1
    12     5     7    1
    13     5    16    1
    14     7     8   am
    15     7    32    1
    16     8     9    2
    17     8    10    1
    18    10    15    1
    19    10    11    1
    20    10    33    1
    21    11    12    1
    22    11    34    1
    23    11    35    1
    24    12    14    1
    25    12    13    1
    26    12    15    1
    27    13    14    1
    28    13    36    1
    29    13    37    1
    30    14    38    1
    31    14    39    1
    32    15    40    1
    33    15    41    1
    34    16    17    1
    35    16    42    1
    36    16    43    1
    37    17    18   am
    38    18    19    2
    39    18    20    1
    40    20    25    1
    41    20    21    2
    42    21    22    1
    43    21    44    1
    44    22    23    1
    45    22    24    2
    46    24    25    1
    47    24    45    1
    48    25    26    1
    49    26    46    1
    50    26    47    1
    51    26    48    1
@<TRIPOS>SUBSTRUCTURE
     1 ZINC001013196242        1 TEMP              0 ****  ****    0 ROOT


##########                                Name:    ZINC000010935976
##########                DOCK_Rotatable_Bonds:                   3
##########                         Heavy_Atoms:                  26
##########                    Molecular_Weight:             391.558
##########                DOCK_Rotatable_Bonds:                   3
##########                       Formal_Charge:         -0.00999979
##########                     HBond_Acceptors:                   7
##########                        HBond_Donors:                   1
##########                         Heavy_Atoms:                  26
##########                          Grid_Score:          -28.484457
##########                     Grid_vdw_energy:          -28.187626
##########                      Grid_es_energy:           -0.296831
##########           Internal_energy_repulsive:          128.575760

@<TRIPOS>MOLECULE
ZINC000010935976
 51 54 1 0 0
SMALL
USER_CHARGES


@<TRIPOS>ATOM
      1 C1         -7.4248    1.8146   54.2718 C.3     1  ZINC000010935976   -0.0800
      2 C2         -8.3008    0.9074   55.0968 C.2     1  ZINC000010935976   -0.2100
      3 C3         -8.4428    0.9981   56.4047 C.2     1  ZINC000010935976   -0.0400
      4 C4         -7.7300    2.0396   57.2284 C.3     1  ZINC000010935976   -0.1000
      5 C5         -9.3387    0.0177   56.9896 C.2     1  ZINC000010935976   -0.2300
      6 C6         -9.8776   -0.8372   56.0308 C.2     1  ZINC000010935976    0.0900
      7 N7        -10.7321   -1.8089   56.4080 N.2     1  ZINC000010935976   -0.4900
      8 C8        -11.0739   -1.9738   57.6633 C.2     1  ZINC000010935976    0.3400
      9 S9        -12.1958   -3.2649   58.0866 S.3     1  ZINC000010935976    0.0500
     10 C10       -13.0201   -3.5003   56.4925 C.3     1  ZINC000010935976   -0.1000
     11 H11       -12.2756   -3.6941   55.7203 H       1  ZINC000010935976    0.1400
     12 C12       -13.8167   -2.2432   56.1349 C.3     1  ZINC000010935976   -0.1000
     13 C13       -14.3975   -1.6019   57.3820 C.3     1  ZINC000010935976   -0.1300
     14 C14       -15.4626   -2.4413   58.0636 C.3     1  ZINC000010935976   -0.1400
     15 C15       -14.8582   -3.7192   58.6485 C.3     1  ZINC000010935976    0.0700
     16 N16       -14.8383   -4.7532   57.6011 N.am    1  ZINC000010935976   -0.7200
     17 C17       -13.9765   -4.6709   56.5822 C.2     1  ZINC000010935976    0.5400
     18 O18       -13.9664   -5.5318   55.7280 O.2     1  ZINC000010935976   -0.5200
     19 N19       -10.5810   -1.1697   58.6498 N.am    1  ZINC000010935976   -0.5100
     20 C20       -10.9878   -1.3879   60.0401 C.3     1  ZINC000010935976    0.1200
     21 C21        -9.8340   -2.0363   60.8328 C.3     1  ZINC000010935976   -0.1300
     22 C22        -9.1217   -0.8409   61.5130 C.3     1  ZINC000010935976   -0.1300
     23 C23       -10.3019    0.0836   61.9023 C.3     1  ZINC000010935976   -0.1100
     24 C24       -11.2853   -0.0401   60.7202 C.3     1  ZINC000010935976   -0.1200
     25 C25        -9.7212   -0.1766   58.3507 C.2     1  ZINC000010935976    0.5600
     26 O26        -9.2782    0.5448   59.2279 O.2     1  ZINC000010935976   -0.5000
     27 S27        -9.2678   -0.3993   54.4400 S.3     1  ZINC000010935976    0.2100
     28 H28        -7.4916    1.5281   53.2223 H       1  ZINC000010935976    0.0700
     29 H29        -7.7577    2.8459   54.3888 H       1  ZINC000010935976    0.0800
     30 H30        -6.3917    1.7259   54.6076 H       1  ZINC000010935976    0.0800
     31 H31        -8.3482    2.9348   57.2962 H       1  ZINC000010935976    0.0700
     32 H32        -7.5463    1.6483   58.2290 H       1  ZINC000010935976    0.0800
     33 H33        -6.7801    2.2890   56.7556 H       1  ZINC000010935976    0.0700
     34 H34       -13.1585   -1.5305   55.6380 H       1  ZINC000010935976    0.0900
     35 H35       -14.6282   -2.5128   55.4588 H       1  ZINC000010935976    0.0900
     36 H36       -13.5886   -1.4238   58.0905 H       1  ZINC000010935976    0.0700
     37 H37       -14.8340   -0.6413   57.1082 H       1  ZINC000010935976    0.0800
     38 H38       -15.9179   -1.8605   58.8657 H       1  ZINC000010935976    0.0800
     39 H39       -16.2289   -2.7079   57.3357 H       1  ZINC000010935976    0.0700
     40 H40       -13.8409   -3.5212   58.9864 H       1  ZINC000010935976    0.1100
     41 H41       -15.4649   -4.0600   59.4875 H       1  ZINC000010935976    0.0900
     42 H42       -15.4533   -5.5016   57.6511 H       1  ZINC000010935976    0.4000
     43 H43       -11.8705   -2.0265   60.0747 H       1  ZINC000010935976    0.1000
     44 H44       -10.2254   -2.7239   61.5825 H       1  ZINC000010935976    0.0800
     45 H45        -9.1515   -2.5536   60.1586 H       1  ZINC000010935976    0.0700
     46 H46        -8.5789   -1.1684   62.3997 H       1  ZINC000010935976    0.0600
     47 H47        -8.4535   -0.3400   60.8127 H       1  ZINC000010935976    0.1100
     48 H48       -10.7689   -0.2617   62.8247 H       1  ZINC000010935976    0.0600
     49 H49        -9.9608    1.1134   62.0086 H       1  ZINC000010935976    0.0700
     50 H50       -11.1269    0.7764   60.0157 H       1  ZINC000010935976    0.0800
     51 H51       -12.3122   -0.0248   61.0855 H       1  ZINC000010935976    0.0700
@<TRIPOS>BOND
     1     1     2    1
     2     1    28    1
     3     1    29    1
     4     1    30    1
     5     2    27    1
     6     2     3    2
     7     3     4    1
     8     3     5    1
     9     4    31    1
    10     4    32    1
    11     4    33    1
    12     5    25    1
    13     5     6    2
    14     6     7    1
    15     6    27    1
    16     7     8    2
    17     8     9    1
    18     8    19    1
    19     9    10    1
    20    10    11    1
    21    10    17    1
    22    10    12    1
    23    12    13    1
    24    12    34    1
    25    12    35    1
    26    13    14    1
    27    13    36    1
    28    13    37    1
    29    14    15    1
    30    14    38    1
    31    14    39    1
    32    15    16    1
    33    15    40    1
    34    15    41    1
    35    16    17   am
    36    16    42    1
    37    17    18    2
    38    19    20    1
    39    19    25   am
    40    20    24    1
    41    20    21    1
    42    20    43    1
    43    21    22    1
    44    21    44    1
    45    21    45    1
    46    22    23    1
    47    22    46    1
    48    22    47    1
    49    23    24    1
    50    23    48    1
    51    23    49    1
    52    24    50    1
    53    24    51    1
    54    25    26    2
@<TRIPOS>SUBSTRUCTURE
     1 ZINC000010935976        1 TEMP              0 ****  ****    0 ROOT


##########                                Name:    ZINC000081577146
##########                DOCK_Rotatable_Bonds:                   4
##########                         Heavy_Atoms:                  25
##########                    Molecular_Weight:             355.464
##########                DOCK_Rotatable_Bonds:                   4
##########                       Formal_Charge:                0.02
##########                     HBond_Acceptors:                   7
##########                        HBond_Donors:                   0
##########                         Heavy_Atoms:                  25
##########                          Grid_Score:          -28.484171
##########                     Grid_vdw_energy:          -26.809397
##########                      Grid_es_energy:           -1.674774
##########           Internal_energy_repulsive:           12.659303

@<TRIPOS>MOLECULE
ZINC000081577146
 46 49 1 0 0
SMALL
USER_CHARGES


@<TRIPOS>ATOM
      1 C1         -1.8772    0.0505   44.7369 C.3     1  ZINC000081577146   -0.0700
      2 C2         -1.2323   -0.3864   46.0270 C.2     1  ZINC000081577146    0.2900
      3 N3         -1.2859   -1.6262   46.4182 N.2     1  ZINC000081577146   -0.4800
      4 S4         -0.4474   -1.6809   47.8955 S.3     1  ZINC000081577146    0.1900
      5 C5         -0.0669   -0.0004   47.8998 C.2     1  ZINC000081577146    0.2700
      6 N6          0.6428    0.6998   48.8585 N.3     1  ZINC000081577146   -0.4300
      7 C7          1.7586    1.4393   48.2522 C.3     1  ZINC000081577146    0.0700
      8 C8          2.4681    2.2615   49.3306 C.3     1  ZINC000081577146    0.0500
      9 N9          2.9490    1.3638   50.3901 N.3     1  ZINC000081577146   -0.5200
     10 C10         3.7027    2.1075   51.4083 C.3     1  ZINC000081577146    0.1900
     11 H11         4.2413    2.9282   50.9345 H       1  ZINC000081577146    0.0700
     12 C12         4.7003    1.1693   52.0907 C.3     1  ZINC000081577146   -0.1500
     13 C13         2.7487    2.6597   52.4359 C.2     1  ZINC000081577146    0.1900
     14 N14         1.8390    3.5666   52.2136 N.2     1  ZINC000081577146   -0.4500
     15 C15         1.1804    3.8108   53.3565 C.2     1  ZINC000081577146   -0.0200
     16 C16         1.7172    3.0139   54.3157 C.2     1  ZINC000081577146    0.0000
     17 C17         1.3064    2.9432   55.7340 C.ar    1  ZINC000081577146   -0.0200
     18 C18         1.9504    2.0653   56.6073 C.ar    1  ZINC000081577146   -0.1000
     19 C19         1.5623    2.0047   57.9299 C.ar    1  ZINC000081577146   -0.1200
     20 C20         0.5371    2.8112   58.3909 C.ar    1  ZINC000081577146   -0.1100
     21 C21        -0.1056    3.6832   57.5303 C.ar    1  ZINC000081577146   -0.1100
     22 C22         0.2767    3.7582   56.2068 C.ar    1  ZINC000081577146   -0.0900
     23 O23         2.6953    2.2936   53.7237 O.3     1  ZINC000081577146   -0.2000
     24 C24         1.8332    0.6242   50.9965 C.3     1  ZINC000081577146    0.0600
     25 C25         1.1236   -0.1979   49.9180 C.3     1  ZINC000081577146    0.0500
     26 N26        -0.5939    0.4708   46.7894 N.2     1  ZINC000081577146   -0.5400
     27 H27        -1.1601   -0.0455   43.9216 H       1  ZINC000081577146    0.0900
     28 H28        -2.7447   -0.5773   44.5335 H       1  ZINC000081577146    0.0900
     29 H29        -2.1931    1.0902   44.8224 H       1  ZINC000081577146    0.0900
     30 H30         2.4632    0.7355   47.8090 H       1  ZINC000081577146    0.0700
     31 H31         1.3757    2.1061   47.4796 H       1  ZINC000081577146    0.1100
     32 H32         3.3138    2.7883   48.8887 H       1  ZINC000081577146    0.1000
     33 H33         1.7707    2.9839   49.7548 H       1  ZINC000081577146    0.0600
     34 H34         4.1618    0.3488   52.5646 H       1  ZINC000081577146    0.0800
     35 H35         5.3904    0.7700   51.3474 H       1  ZINC000081577146    0.0800
     36 H36         5.2596    1.7211   52.8463 H       1  ZINC000081577146    0.0700
     37 H37         0.3709    4.5131   53.4894 H       1  ZINC000081577146    0.1900
     38 H38         2.7504    1.4347   56.2485 H       1  ZINC000081577146    0.1300
     39 H39         2.0598    1.3258   58.6068 H       1  ZINC000081577146    0.1300
     40 H40         0.2370    2.7596   59.4271 H       1  ZINC000081577146    0.1300
     41 H41        -0.9057    4.3096   57.8964 H       1  ZINC000081577146    0.1300
     42 H42        -0.2255    4.4396   55.5362 H       1  ZINC000081577146    0.1300
     43 H43         2.2160   -0.0426   51.7690 H       1  ZINC000081577146    0.0900
     44 H44         1.1285    1.3280   51.4396 H       1  ZINC000081577146    0.0500
     45 H45         0.2780   -0.7248   50.3599 H       1  ZINC000081577146    0.1000
     46 H46         1.8211   -0.9202   49.4938 H       1  ZINC000081577146    0.0800
@<TRIPOS>BOND
     1     1     2    1
     2     1    27    1
     3     1    28    1
     4     1    29    1
     5     2    26    1
     6     2     3    2
     7     3     4    1
     8     4     5    1
     9     5     6    1
    10     5    26    2
    11     6    25    1
    12     6     7    1
    13     7     8    1
    14     7    30    1
    15     7    31    1
    16     8     9    1
    17     8    32    1
    18     8    33    1
    19     9    10    1
    20     9    24    1
    21    10    11    1
    22    10    12    1
    23    10    13    1
    24    12    34    1
    25    12    35    1
    26    12    36    1
    27    13    23    1
    28    13    14    2
    29    14    15    1
    30    15    16    2
    31    15    37    1
    32    16    17    1
    33    16    23    1
    34    17    22   ar
    35    17    18   ar
    36    18    19   ar
    37    18    38    1
    38    19    20   ar
    39    19    39    1
    40    20    21   ar
    41    20    40    1
    42    21    22   ar
    43    21    41    1
    44    22    42    1
    45    24    25    1
    46    24    43    1
    47    24    44    1
    48    25    45    1
    49    25    46    1
@<TRIPOS>SUBSTRUCTURE
     1 ZINC000081577146        1 TEMP              0 ****  ****    0 ROOT


##########                                Name:    ZINC000012979878
##########                DOCK_Rotatable_Bonds:                   7
##########                         Heavy_Atoms:                  26
##########                    Molecular_Weight:             388.874
##########                DOCK_Rotatable_Bonds:                   7
##########                       Formal_Charge:          -0.0100003
##########                     HBond_Acceptors:                   7
##########                        HBond_Donors:                   1
##########                         Heavy_Atoms:                  26
##########                          Grid_Score:          -28.454067
##########                     Grid_vdw_energy:          -28.323519
##########                      Grid_es_energy:           -0.130548
##########           Internal_energy_repulsive:            9.809425

@<TRIPOS>MOLECULE
ZINC000012979878
 43 45 1 0 0
SMALL
USER_CHARGES


@<TRIPOS>ATOM
      1 C1         -2.5310    4.0492   47.7496 C.3     1  <0>         0.0300
      2 O2         -3.4454    3.0561   48.2182 O.3     1  <0>        -0.3100
      3 C3         -3.5768    2.9244   49.5644 C.ar    1  <0>         0.1500
      4 C4         -2.8480    3.7422   50.4163 C.ar    1  <0>        -0.2200
      5 C5         -2.9801    3.6093   51.7857 C.ar    1  <0>        -0.0600
      6 C6         -3.8379    2.6627   52.3107 C.ar    1  <0>        -0.1800
      7 C7         -4.5702    1.8410   51.4624 C.ar    1  <0>         0.1800
      8 N8         -5.4388    0.8826   51.9939 N.am    1  <0>        -0.6700
      9 C9         -6.5469    1.2706   52.6558 C.2     1  <0>         0.6000
     10 O10        -6.7915    2.4550   52.7909 O.2     1  <0>        -0.4900
     11 C11        -7.4578    0.2655   53.2132 C.2     1  <0>        -0.3000
     12 C12        -8.0075   -0.7766   52.5404 C.2     1  <0>         0.1600
     13 C13        -7.7403   -1.0414   51.0810 C.3     1  <0>        -0.0900
     14 N14        -8.7897   -1.5329   53.2689 N.2     1  <0>        -0.4500
     15 C15        -8.9431   -1.2067   54.5120 C.2     1  <0>         0.0600
     16 C16        -9.8016   -1.9560   55.4982 C.3     1  <0>         0.1300
     17 O17       -11.1802   -1.7319   55.1964 O.3     1  <0>        -0.3000
     18 C18       -12.0596   -1.8159   56.2293 C.ar    1  <0>         0.1300
     19 C19       -12.4285   -0.6721   56.9221 C.ar    1  <0>        -0.2000
     20 C20       -13.3224   -0.7594   57.9717 C.ar    1  <0>        -0.0700
     21 C21       -13.8494   -1.9869   58.3324 C.ar    1  <0>        -0.0700
     22 Cl22      -14.9722   -2.0942   59.6521 Cl      1  <0>        -0.0700
     23 C23       -13.4831   -3.1288   57.6423 C.ar    1  <0>        -0.0700
     24 C24       -12.5939   -3.0447   56.5884 C.ar    1  <0>        -0.1300
     25 S25        -8.0284    0.1902   54.8786 S.3     1  <0>         0.2000
     26 C26        -4.4431    1.9770   50.0873 C.ar    1  <0>        -0.1500
     27 H27        -2.8426    5.0293   48.1107 H       1  <0>         0.0600
     28 H28        -1.5307    3.8262   48.1210 H       1  <0>         0.0600
     29 H29        -2.5220    4.0495   46.6596 H       1  <0>         0.1000
     30 H30        -2.1764    4.4833   50.0087 H       1  <0>         0.1300
     31 H31        -2.4112    4.2465   52.4464 H       1  <0>         0.1300
     32 H32        -3.9393    2.5607   53.3811 H       1  <0>         0.1300
     33 H33        -5.2438   -0.0615   51.8863 H       1  <0>         0.4100
     34 H34        -6.8721   -1.6933   50.9831 H       1  <0>         0.0900
     35 H35        -8.6093   -1.5244   50.6343 H       1  <0>         0.0800
     36 H36        -7.5460   -0.0984   50.5703 H       1  <0>         0.1000
     37 H37        -9.5840   -3.0221   55.4328 H       1  <0>         0.0900
     38 H38        -9.5885   -1.6029   56.5073 H       1  <0>         0.1000
     39 H39       -12.0167    0.2861   56.6414 H       1  <0>         0.1400
     40 H40       -13.6098    0.1308   58.5113 H       1  <0>         0.1400
     41 H41       -13.8958   -4.0860   57.9251 H       1  <0>         0.1400
     42 H42       -12.3081   -3.9363   56.0501 H       1  <0>         0.1400
     43 H43        -5.0114    1.3400   49.4258 H       1  <0>         0.1400
@<TRIPOS>BOND
     1     1     2    1
     2     1    27    1
     3     1    28    1
     4     1    29    1
     5     2     3    1
     6     3    26   ar
     7     3     4   ar
     8     4     5   ar
     9     4    30    1
    10     5     6   ar
    11     5    31    1
    12     6     7   ar
    13     6    32    1
    14     7     8    1
    15     7    26   ar
    16     8     9   am
    17     8    33    1
    18     9    10    2
    19     9    11    1
    20    11    25    1
    21    11    12    2
    22    12    13    1
    23    12    14    1
    24    13    34    1
    25    13    35    1
    26    13    36    1
    27    14    15    2
    28    15    16    1
    29    15    25    1
    30    16    17    1
    31    16    37    1
    32    16    38    1
    33    17    18    1
    34    18    24   ar
    35    18    19   ar
    36    19    20   ar
    37    19    39    1
    38    20    21   ar
    39    20    40    1
    40    21    22    1
    41    21    23   ar
    42    23    24   ar
    43    23    41    1
    44    24    42    1
    45    26    43    1
@<TRIPOS>SUBSTRUCTURE
     1 <0>         1 TEMP              0 ****  ****    0 ROOT


##########                                Name:    ZINC000611836474
##########                DOCK_Rotatable_Bonds:                   7
##########                         Heavy_Atoms:                  22
##########                    Molecular_Weight:             366.258
##########                DOCK_Rotatable_Bonds:                   7
##########                       Formal_Charge:          -0.0300004
##########                     HBond_Acceptors:                   5
##########                        HBond_Donors:                   1
##########                         Heavy_Atoms:                  22
##########                          Grid_Score:          -28.424856
##########                     Grid_vdw_energy:          -28.748110
##########                      Grid_es_energy:            0.323253
##########           Internal_energy_repulsive:           10.809608

@<TRIPOS>MOLECULE
ZINC000611836474
 42 43 1 0 0
SMALL
USER_CHARGES


@<TRIPOS>ATOM
      1 C1         -7.1501   -1.3208   51.1515 C.3     1  ZINC000611836474   -0.1500
      2 C2         -7.1024    0.1882   51.4001 C.3     1  ZINC000611836474   -0.1400
      3 C3         -6.2585    0.4737   52.6439 C.3     1  ZINC000611836474    0.1300
      4 N4         -6.2194    1.9180   52.8865 N.pl3   1  ZINC000611836474   -0.3900
      5 N5         -6.9833    2.6162   53.8304 N.2     1  ZINC000611836474   -0.2900
      6 C6         -6.6741    3.8852   53.7539 C.2     1  ZINC000611836474    0.0600
      7 C7         -5.7037    4.0420   52.7605 C.2     1  ZINC000611836474   -0.2800
      8 C8         -5.4351    2.8122   52.2426 C.2     1  ZINC000611836474    0.3000
      9 N9         -4.5228    2.5271   51.2268 N.am    1  ZINC000611836474   -0.6500
     10 C10        -3.2017    2.5101   51.4929 C.2     1  ZINC000611836474    0.5200
     11 O11        -2.8061    2.7413   52.6159 O.2     1  ZINC000611836474   -0.4700
     12 C12        -2.2159    2.2038   50.3949 C.3     1  ZINC000611836474    0.0700
     13 H13        -1.2745    1.8730   50.8337 H       1  ZINC000611836474    0.1100
     14 C14        -1.9748    3.4629   49.5600 C.3     1  ZINC000611836474   -0.1800
     15 O15        -2.7405    1.1708   49.5584 O.3     1  ZINC000611836474   -0.2700
     16 C16        -2.2878    1.1245   48.2776 C.ar    1  ZINC000611836474    0.1500
     17 C17        -3.0254    1.7081   47.2586 C.ar    1  ZINC000611836474   -0.2000
     18 C18        -2.5632    1.6597   45.9572 C.ar    1  ZINC000611836474   -0.0600
     19 C19        -1.3667    1.0296   45.6701 C.ar    1  ZINC000611836474   -0.1100
     20 C20        -0.8657    0.9780   44.2498 C.3     1  ZINC000611836474   -0.1100
     21 C21        -0.6286    0.4470   46.6840 C.ar    1  ZINC000611836474   -0.0500
     22 C22        -1.0834    0.4976   47.9880 C.ar    1  ZINC000611836474   -0.1200
     23 Br23       -0.0738   -0.2992   49.3742 Br      1  ZINC000611836474   -0.0300
     24 H24        -7.7514   -1.5242   50.2654 H       1  ZINC000611836474    0.0600
     25 H25        -6.1383   -1.6959   50.9980 H       1  ZINC000611836474    0.0600
     26 H26        -7.5947   -1.8172   52.0141 H       1  ZINC000611836474    0.0600
     27 H27        -6.6579    0.6845   50.5375 H       1  ZINC000611836474    0.0800
     28 H28        -8.1143    0.5632   51.5535 H       1  ZINC000611836474    0.0600
     29 H29        -6.6997   -0.0276   53.5053 H       1  ZINC000611836474    0.0800
     30 H30        -5.2450    0.1039   52.4880 H       1  ZINC000611836474    0.1000
     31 H31        -7.0969    4.6764   54.3552 H       1  ZINC000611836474    0.1900
     32 H32        -5.2459    4.9727   52.4596 H       1  ZINC000611836474    0.1700
     33 H33        -4.8392    2.3410   50.3289 H       1  ZINC000611836474    0.4100
     34 H34        -1.5746    4.2509   50.1981 H       1  ZINC000611836474    0.0800
     35 H35        -1.2617    3.2413   48.7659 H       1  ZINC000611836474    0.0800
     36 H36        -2.9161    3.7937   49.1212 H       1  ZINC000611836474    0.0800
     37 H37        -3.9607    2.2000   47.4820 H       1  ZINC000611836474    0.1400
     38 H38        -3.1376    2.1142   45.1636 H       1  ZINC000611836474    0.1300
     39 H39        -0.2439    1.8511   44.0519 H       1  ZINC000611836474    0.0700
     40 H40        -0.2770    0.0723   44.1049 H       1  ZINC000611836474    0.0700
     41 H41        -1.7140    0.9734   43.5653 H       1  ZINC000611836474    0.0700
     42 H42         0.3059   -0.0447   46.4571 H       1  ZINC000611836474    0.1400
@<TRIPOS>BOND
     1     1     2    1
     2     1    24    1
     3     1    25    1
     4     1    26    1
     5     2     3    1
     6     2    27    1
     7     2    28    1
     8     3     4    1
     9     3    29    1
    10     3    30    1
    11     4     8    1
    12     4     5    1
    13     5     6    2
    14     6     7    1
    15     6    31    1
    16     7     8    2
    17     7    32    1
    18     8     9    1
    19     9    10   am
    20     9    33    1
    21    10    11    2
    22    10    12    1
    23    12    13    1
    24    12    14    1
    25    12    15    1
    26    14    34    1
    27    14    35    1
    28    14    36    1
    29    15    16    1
    30    16    22   ar
    31    16    17   ar
    32    17    18   ar
    33    17    37    1
    34    18    19   ar
    35    18    38    1
    36    19    20    1
    37    19    21   ar
    38    20    39    1
    39    20    40    1
    40    20    41    1
    41    21    22   ar
    42    21    42    1
    43    22    23    1
@<TRIPOS>SUBSTRUCTURE
     1 ZINC000611836474        1 TEMP              0 ****  ****    0 ROOT


##########                                Name:    ZINC000826324849
##########                DOCK_Rotatable_Bonds:                   4
##########                         Heavy_Atoms:                  27
##########                    Molecular_Weight:             395.374
##########                DOCK_Rotatable_Bonds:                   4
##########                       Formal_Charge:           0.0400001
##########                     HBond_Acceptors:                  13
##########                        HBond_Donors:                   1
##########                         Heavy_Atoms:                  27
##########                          Grid_Score:          -28.424482
##########                     Grid_vdw_energy:          -25.482603
##########                      Grid_es_energy:           -2.941879
##########           Internal_energy_repulsive:          101.872063

@<TRIPOS>MOLECULE
ZINC000826324849
 41 44 1 0 0
SMALL
USER_CHARGES


@<TRIPOS>ATOM
      1 C1        -13.7001   -4.5040   57.0901 C.3     1  ZINC000826324849   -0.0600
      2 C2        -12.4365   -3.7375   57.3852 C.2     1  ZINC000826324849    0.2000
      3 N3        -12.3482   -2.4658   57.6923 N.2     1  ZINC000826324849   -0.4600
      4 C4        -11.0365   -2.2260   57.8680 C.2     1  ZINC000826324849    0.1600
      5 C5        -10.4129   -0.9044   58.2359 C.3     1  ZINC000826324849    0.2200
      6 H6        -11.1753   -0.2388   58.6411 H       1  ZINC000826324849    0.1300
      7 C7         -9.3128   -1.1255   59.2803 C.3     1  ZINC000826324849    0.0600
      8 O8         -8.6048    0.0995   59.4847 O.3     1  ZINC000826324849   -0.3600
      9 C9         -7.9266    0.5845   58.3234 C.3     1  ZINC000826324849    0.0400
     10 C10        -8.9558    0.8932   57.2301 C.3     1  ZINC000826324849    0.0800
     11 N11        -9.8054   -0.2938   57.0429 N.am    1  ZINC000826324849   -1.0100
     12 S12       -10.0685   -0.9245   55.5344 S.o2    1  ZINC000826324849    2.7100
     13 O13        -8.7865   -1.1471   54.9634 O.2     1  ZINC000826324849   -0.9300
     14 O14       -11.0379   -1.9513   55.6924 O.2     1  ZINC000826324849   -0.9300
     15 C15       -10.8317    0.3359   54.5680 C.ar    1  ZINC000826324849   -0.5800
     16 C16       -12.1355    0.7087   54.8239 C.ar    1  ZINC000826324849   -0.0400
     17 C17       -12.7372    1.6979   54.0667 C.ar    1  ZINC000826324849   -0.0800
     18 C18       -12.0374    2.3191   53.0490 C.ar    1  ZINC000826324849   -0.1100
     19 C19       -10.7303    1.9539   52.7831 C.ar    1  ZINC000826324849    0.1300
     20 F20       -10.0463    2.5612   51.7888 F       1  ZINC000826324849   -0.1100
     21 C21       -10.1179    0.9612   53.5483 C.ar    1  ZINC000826324849    0.0500
     22 C22        -8.7150    0.5644   53.2691 C.2     1  ZINC000826324849    0.1800
     23 N23        -7.6298    1.0644   53.8257 N.2     1  ZINC000826324849   -0.2600
     24 N24        -6.6116    0.4580   53.3191 N.pl3   1  ZINC000826324849   -0.2200
     25 N25        -7.0174   -0.4101   52.4596 N.2     1  ZINC000826324849   -0.0200
     26 N26        -8.3056   -0.3762   52.4061 N.2     1  ZINC000826324849   -0.2600
     27 N27       -10.4058   -3.3434   57.6626 N.2     1  ZINC000826324849   -0.3800
     28 O28       -11.1923   -4.2255   57.3897 O.3     1  ZINC000826324849    0.0900
     29 H29       -13.4526   -5.5432   56.8736 H       1  ZINC000826324849    0.1000
     30 H30       -14.3617   -4.4608   57.9553 H       1  ZINC000826324849    0.1100
     31 H31       -14.1999   -4.0624   56.2281 H       1  ZINC000826324849    0.1100
     32 H32        -9.7620   -1.4476   60.2197 H       1  ZINC000826324849    0.1200
     33 H33        -8.6221   -1.8902   58.9252 H       1  ZINC000826324849    0.0600
     34 H34        -7.3786    1.4927   58.5745 H       1  ZINC000826324849    0.1200
     35 H35        -7.2309   -0.1741   57.9648 H       1  ZINC000826324849    0.0600
     36 H36        -9.5711    1.7402   57.5337 H       1  ZINC000826324849    0.0900
     37 H37        -8.4419    1.1276   56.2978 H       1  ZINC000826324849    0.1100
     38 H38       -12.6878    0.2268   55.6172 H       1  ZINC000826324849    0.1400
     39 H39       -13.7578    1.9860   54.2711 H       1  ZINC000826324849    0.1500
     40 H40       -12.5123    3.0902   52.4605 H       1  ZINC000826324849    0.1500
     41 H41        -5.6850    0.6291   53.5491 H       1  ZINC000826324849    0.4800
@<TRIPOS>BOND
     1     1     2    1
     2     1    29    1
     3     1    30    1
     4     1    31    1
     5     2    28    1
     6     2     3    2
     7     3     4    1
     8     4     5    1
     9     4    27    2
    10     5     6    1
    11     5    11    1
    12     5     7    1
    13     7     8    1
    14     7    32    1
    15     7    33    1
    16     8     9    1
    17     9    10    1
    18     9    34    1
    19     9    35    1
    20    10    11    1
    21    10    36    1
    22    10    37    1
    23    11    12   am
    24    12    13    2
    25    12    14    2
    26    12    15    1
    27    15    21   ar
    28    15    16   ar
    29    16    17   ar
    30    16    38    1
    31    17    18   ar
    32    17    39    1
    33    18    19   ar
    34    18    40    1
    35    19    20    1
    36    19    21   ar
    37    21    22    1
    38    22    26    1
    39    22    23    2
    40    23    24    1
    41    24    25    1
    42    24    41    1
    43    25    26    2
    44    27    28    1
@<TRIPOS>SUBSTRUCTURE
     1 ZINC000826324849        1 TEMP              0 ****  ****    0 ROOT


##########                                Name:    ZINC000001174632
##########                DOCK_Rotatable_Bonds:                   6
##########                         Heavy_Atoms:                  29
##########                    Molecular_Weight:             385.419
##########                DOCK_Rotatable_Bonds:                   6
##########                       Formal_Charge:           0.0400005
##########                     HBond_Acceptors:                   5
##########                        HBond_Donors:                   1
##########                         Heavy_Atoms:                  29
##########                          Grid_Score:          -28.422890
##########                     Grid_vdw_energy:          -28.193157
##########                      Grid_es_energy:           -0.229733
##########           Internal_energy_repulsive:            7.333365

@<TRIPOS>MOLECULE
ZINC000001174632
 48 51 1 0 0
SMALL
USER_CHARGES


@<TRIPOS>ATOM
      1 C1        -10.6672    0.7373   60.2905 C.3     1  ZINC000001174632    0.0400
      2 O2         -9.7159    0.9890   59.2230 O.3     1  ZINC000001174632   -0.3500
      3 C3         -8.9040   -0.0287   58.8744 C.2     1  ZINC000001174632    0.5200
      4 O4         -7.6981    0.1123   58.9228 O.2     1  ZINC000001174632   -0.5200
      5 C5         -9.4788   -1.3123   58.4346 C.ar    1  ZINC000001174632   -0.2000
      6 C6         -9.4650   -2.4180   59.2883 C.ar    1  ZINC000001174632   -0.0200
      7 C7        -10.0048   -3.6155   58.8710 C.ar    1  ZINC000001174632   -0.1800
      8 C8        -10.5622   -3.7302   57.6076 C.ar    1  ZINC000001174632   -0.0300
      9 C9        -10.5834   -2.6474   56.7520 C.ar    1  ZINC000001174632   -0.1900
     10 C10       -10.0495   -1.4302   57.1565 C.ar    1  ZINC000001174632    0.2600
     11 N11       -10.0699   -0.3390   56.2977 N.pl3   1  ZINC000001174632   -0.6500
     12 C12       -10.9918   -0.2812   55.2845 C.2     1  ZINC000001174632    0.2300
     13 C13       -10.6963   -0.1993   53.9372 C.2     1  ZINC000001174632   -0.1800
     14 C14        -9.3391   -0.1597   53.3487 C.ar    1  ZINC000001174632   -0.0600
     15 C15        -8.9375   -1.1482   52.4491 C.ar    1  ZINC000001174632   -0.0600
     16 C16        -7.6718   -1.1077   51.9029 C.ar    1  ZINC000001174632   -0.1500
     17 C17        -6.7976   -0.0859   52.2471 C.ar    1  ZINC000001174632    0.1400
     18 O18        -5.5508   -0.0496   51.7064 O.3     1  ZINC000001174632   -0.3200
     19 C19        -5.2384    1.0666   50.8705 C.3     1  ZINC000001174632    0.0300
     20 C20        -7.1932    0.8993   53.1415 C.ar    1  ZINC000001174632   -0.2100
     21 C21        -8.4593    0.8695   53.6874 C.ar    1  ZINC000001174632   -0.0500
     22 C22       -11.9593   -0.1590   53.1892 C.2     1  ZINC000001174632    0.4500
     23 O23       -12.0827   -0.0875   51.9821 O.2     1  ZINC000001174632   -0.4100
     24 C24       -13.0601   -0.2229   54.1898 C.ar    1  ZINC000001174632   -0.1600
     25 C25       -14.4371   -0.2204   54.0712 C.ar    1  ZINC000001174632   -0.0500
     26 C26       -15.2314   -0.2912   55.2114 C.ar    1  ZINC000001174632   -0.1100
     27 C27       -14.6500   -0.3634   56.4586 C.ar    1  ZINC000001174632   -0.0900
     28 C28       -13.2663   -0.3667   56.5899 C.ar    1  ZINC000001174632   -0.0800
     29 C29       -12.4635   -0.3029   55.4605 C.ar    1  ZINC000001174632   -0.0600
     30 H30       -10.1301    0.4666   61.1996 H       1  ZINC000001174632    0.0700
     31 H31       -11.2571    1.6359   60.4711 H       1  ZINC000001174632    0.1100
     32 H32       -11.3289   -0.0798   60.0026 H       1  ZINC000001174632    0.0700
     33 H33        -9.0316   -2.3346   60.2739 H       1  ZINC000001174632    0.1400
     34 H34        -9.9928   -4.4694   59.5322 H       1  ZINC000001174632    0.1300
     35 H35       -10.9825   -4.6730   57.2902 H       1  ZINC000001174632    0.1300
     36 H36       -11.0190   -2.7452   55.7686 H       1  ZINC000001174632    0.1300
     37 H37        -9.4320    0.3822   56.4148 H       1  ZINC000001174632    0.4300
     38 H38        -9.6169   -1.9439   52.1813 H       1  ZINC000001174632    0.1300
     39 H39        -7.3603   -1.8722   51.2067 H       1  ZINC000001174632    0.1300
     40 H40        -5.9253    1.0906   50.0246 H       1  ZINC000001174632    0.0600
     41 H41        -5.3360    1.9885   51.4440 H       1  ZINC000001174632    0.0600
     42 H42        -4.2157    0.9723   50.5056 H       1  ZINC000001174632    0.1000
     43 H43        -6.5100    1.6924   53.4070 H       1  ZINC000001174632    0.1300
     44 H44        -8.7666    1.6365   54.3829 H       1  ZINC000001174632    0.1300
     45 H45       -14.8959   -0.1632   53.0951 H       1  ZINC000001174632    0.1400
     46 H46       -16.3075   -0.2892   55.1187 H       1  ZINC000001174632    0.1400
     47 H47       -15.2729   -0.4173   57.3392 H       1  ZINC000001174632    0.1400
     48 H48       -12.8165   -0.4235   57.5701 H       1  ZINC000001174632    0.1300
@<TRIPOS>BOND
     1     1     2    1
     2     1    30    1
     3     1    31    1
     4     1    32    1
     5     2     3    1
     6     3     4    2
     7     3     5    1
     8     5    10   ar
     9     5     6   ar
    10     6     7   ar
    11     6    33    1
    12     7     8   ar
    13     7    34    1
    14     8     9   ar
    15     8    35    1
    16     9    10   ar
    17     9    36    1
    18    10    11    1
    19    11    12    1
    20    11    37    1
    21    12    29    1
    22    12    13    2
    23    13    14    1
    24    13    22    1
    25    14    21   ar
    26    14    15   ar
    27    15    16   ar
    28    15    38    1
    29    16    17   ar
    30    16    39    1
    31    17    18    1
    32    17    20   ar
    33    18    19    1
    34    19    40    1
    35    19    41    1
    36    19    42    1
    37    20    21   ar
    38    20    43    1
    39    21    44    1
    40    22    23    2
    41    22    24    1
    42    24    29   ar
    43    24    25   ar
    44    25    26   ar
    45    25    45    1
    46    26    27   ar
    47    26    46    1
    48    27    28   ar
    49    27    47    1
    50    28    29   ar
    51    28    48    1
@<TRIPOS>SUBSTRUCTURE
     1 ZINC000001174632        1 TEMP              0 ****  ****    0 ROOT


##########                                Name:    ZINC000179211660
##########                DOCK_Rotatable_Bonds:                   6
##########                         Heavy_Atoms:                  23
##########                    Molecular_Weight:             385.208
##########                DOCK_Rotatable_Bonds:                   6
##########                       Formal_Charge:        -1.78814e-07
##########                     HBond_Acceptors:                   6
##########                        HBond_Donors:                   1
##########                         Heavy_Atoms:                  23
##########                          Grid_Score:          -28.380001
##########                     Grid_vdw_energy:          -27.748318
##########                      Grid_es_energy:           -0.631683
##########           Internal_energy_repulsive:           15.977781

@<TRIPOS>MOLECULE
ZINC000179211660
 38 39 1 0 0
SMALL
USER_CHARGES


@<TRIPOS>ATOM
      1 C1          0.0768   -1.6859   48.6376 C.3     1  ZINC000179211660    0.0300
      2 O2         -0.5972   -0.8707   47.6768 O.3     1  ZINC000179211660   -0.2700
      3 C3          0.1631   -0.3171   46.6956 C.ar    1  ZINC000179211660    0.1500
      4 C4          1.5362   -0.5133   46.6866 C.ar    1  ZINC000179211660   -0.2200
      5 C5          2.3068    0.0503   45.6878 C.ar    1  ZINC000179211660   -0.0700
      6 C6          1.7105    0.8094   44.6983 C.ar    1  ZINC000179211660   -0.1700
      7 C7          0.3418    1.0068   44.7053 C.ar    1  ZINC000179211660   -0.0700
      8 C8         -0.4338    0.4406   45.6981 C.ar    1  ZINC000179211660   -0.1500
      9 C9         -1.9253    0.6557   45.7049 C.3     1  ZINC000179211660    0.1800
     10 N10        -2.2145    2.0621   45.9962 N.am    1  ZINC000179211660   -0.6200
     11 C11        -2.3338    3.0275   44.9007 C.3     1  ZINC000179211660    0.0700
     12 C12        -2.3709    2.4677   47.2719 C.2     1  ZINC000179211660    0.7000
     13 O13        -2.6124    3.6346   47.5136 O.2     1  ZINC000179211660   -0.5300
     14 N14        -2.2595    1.5798   48.2797 N.am    1  ZINC000179211660   -0.6800
     15 C15        -2.4220    2.0014   49.6059 C.ar    1  ZINC000179211660    0.1900
     16 C16        -3.6668    1.9201   50.2132 C.ar    1  ZINC000179211660   -0.1400
     17 C17        -3.8246    2.3367   51.5233 C.ar    1  ZINC000179211660    0.1500
     18 F18        -5.0364    2.2578   52.1154 F       1  ZINC000179211660   -0.1100
     19 C19        -2.7409    2.8340   52.2284 C.ar    1  ZINC000179211660   -0.1300
     20 Br20       -2.9599    3.4018   54.0189 Br      1  ZINC000179211660   -0.0100
     21 C21        -1.4985    2.9156   51.6250 C.ar    1  ZINC000179211660   -0.0700
     22 C22        -1.3347    2.4966   50.3176 C.ar    1  ZINC000179211660    0.0600
     23 F23        -0.1213    2.5765   49.7291 F       1  ZINC000179211660   -0.1300
     24 H24        -0.6440   -2.0642   49.3626 H       1  ZINC000179211660    0.1000
     25 H25         0.5564   -2.5233   48.1310 H       1  ZINC000179211660    0.0500
     26 H26         0.8319   -1.0917   49.1524 H       1  ZINC000179211660    0.0500
     27 H27         2.0026   -1.1057   47.4599 H       1  ZINC000179211660    0.1300
     28 H28         3.3760   -0.1022   45.6804 H       1  ZINC000179211660    0.1200
     29 H29         2.3146    1.2494   43.9186 H       1  ZINC000179211660    0.1200
     30 H30        -0.1216    1.6006   43.9313 H       1  ZINC000179211660    0.1300
     31 H31        -2.3343    0.3953   44.7287 H       1  ZINC000179211660    0.0900
     32 H32        -2.3799    0.0255   46.4692 H       1  ZINC000179211660    0.1000
     33 H33        -3.3706    3.0725   44.5673 H       1  ZINC000179211660    0.0600
     34 H34        -2.0208    4.0119   45.2484 H       1  ZINC000179211660    0.0600
     35 H35        -1.6987    2.7162   44.0713 H       1  ZINC000179211660    0.0800
     36 H36        -2.0668    0.6489   48.0869 H       1  ZINC000179211660    0.4100
     37 H37        -4.5119    1.5324   49.6639 H       1  ZINC000179211660    0.1800
     38 H38        -0.6552    3.3037   52.1769 H       1  ZINC000179211660    0.1600
@<TRIPOS>BOND
     1     1     2    1
     2     1    24    1
     3     1    25    1
     4     1    26    1
     5     2     3    1
     6     3     8   ar
     7     3     4   ar
     8     4     5   ar
     9     4    27    1
    10     5     6   ar
    11     5    28    1
    12     6     7   ar
    13     6    29    1
    14     7     8   ar
    15     7    30    1
    16     8     9    1
    17     9    10    1
    18     9    31    1
    19     9    32    1
    20    10    11    1
    21    10    12   am
    22    11    33    1
    23    11    34    1
    24    11    35    1
    25    12    13    2
    26    12    14   am
    27    14    15    1
    28    14    36    1
    29    15    22   ar
    30    15    16   ar
    31    16    17   ar
    32    16    37    1
    33    17    18    1
    34    17    19   ar
    35    19    20    1
    36    19    21   ar
    37    21    22   ar
    38    21    38    1
    39    22    23    1
@<TRIPOS>SUBSTRUCTURE
     1 ZINC000179211660        1 TEMP              0 ****  ****    0 ROOT


##########                                Name:    ZINC000864730443
##########                DOCK_Rotatable_Bonds:                  10
##########                         Heavy_Atoms:                  25
##########                    Molecular_Weight:             356.462
##########                DOCK_Rotatable_Bonds:                  10
##########                       Formal_Charge:           0.0299988
##########                     HBond_Acceptors:                   7
##########                        HBond_Donors:                   2
##########                         Heavy_Atoms:                  25
##########                          Grid_Score:          -28.375284
##########                     Grid_vdw_energy:          -27.914564
##########                      Grid_es_energy:           -0.460720
##########           Internal_energy_repulsive:           24.256571

@<TRIPOS>MOLECULE
ZINC000864730443
 57 58 1 0 0
SMALL
USER_CHARGES


@<TRIPOS>ATOM
      1 C1         -2.3069    3.0908   52.3239 C.3     1  ZINC000864730443   -0.1800
      2 C2         -3.5801    2.9313   51.4905 C.3     1  ZINC000864730443    0.1400
      3 C3         -4.7959    2.8950   52.4185 C.3     1  ZINC000864730443   -0.1800
      4 C4         -3.7097    4.1121   50.5262 C.3     1  ZINC000864730443   -0.1400
      5 O5         -3.5114    1.6938   50.7340 O.3     1  ZINC000864730443   -0.3600
      6 C6         -3.2002    1.7923   49.4278 C.2     1  ZINC000864730443    0.6500
      7 O7         -4.0836    1.8659   48.5967 O.2     1  ZINC000864730443   -0.5700
      8 N8         -1.9090    1.8093   49.0422 N.am    1  ZINC000864730443   -0.7100
      9 C9         -1.5703    1.9182   47.6209 C.3     1  ZINC000864730443    0.1500
     10 C10        -0.8065    0.6675   47.1814 C.3     1  ZINC000864730443   -0.1300
     11 C11        -0.3075    0.8517   45.7715 C.2     1  ZINC000864730443    0.5300
     12 O12        -0.7775    0.1896   44.8705 O.2     1  ZINC000864730443   -0.5300
     13 N13         0.6612    1.7521   45.5116 N.am    1  ZINC000864730443   -0.7200
     14 C14         1.1463    1.9311   44.1409 C.3     1  ZINC000864730443    0.1200
     15 C15         2.4302    2.7631   44.1589 C.3     1  ZINC000864730443   -0.1300
     16 C16         3.5645    1.9646   43.5136 C.3     1  ZINC000864730443    0.0800
     17 H17         4.4605    2.5798   43.4317 H       1  ZINC000864730443    0.0800
     18 C18         3.8620    0.6885   44.3406 C.3     1  ZINC000864730443   -0.1500
     19 C19         4.4915   -0.2263   43.2548 C.3     1  ZINC000864730443   -0.1600
     20 C20         3.7104    0.1837   41.9878 C.3     1  ZINC000864730443    0.0500
     21 O21         3.1657    1.4898   42.2178 O.3     1  ZINC000864730443   -0.3800
     22 C22         0.3816    0.4369   48.1204 C.3     1  ZINC000864730443   -0.1000
     23 C23         1.0919   -0.8593   47.7184 C.3     1  ZINC000864730443   -0.1600
     24 C24         0.0884   -2.0149   47.7565 C.3     1  ZINC000864730443    0.0600
     25 O25        -1.0060   -1.7227   46.8852 O.3     1  ZINC000864730443   -0.3700
     26 C26        -1.7367   -0.5469   47.2403 C.3     1  ZINC000864730443    0.0800
     27 H27        -2.2147    2.2497   53.0109 H       1  ZINC000864730443    0.0900
     28 H28        -1.4407    3.1168   51.6628 H       1  ZINC000864730443    0.0600
     29 H29        -2.3585    4.0198   52.8918 H       1  ZINC000864730443    0.0700
     30 H30        -4.8475    3.8239   52.9864 H       1  ZINC000864730443    0.0700
     31 H31        -5.7029    2.7813   51.8247 H       1  ZINC000864730443    0.0600
     32 H32        -4.7036    2.0537   53.1055 H       1  ZINC000864730443    0.0900
     33 H33        -2.8434    4.1380   49.8650 H       1  ZINC000864730443    0.0700
     34 H34        -4.6167    3.9984   49.9324 H       1  ZINC000864730443    0.0700
     35 H35        -3.7612    5.0410   51.0941 H       1  ZINC000864730443    0.0800
     36 H36        -1.2038    1.7493   49.7055 H       1  ZINC000864730443    0.4100
     37 H37        -2.4851    2.0099   47.0354 H       1  ZINC000864730443    0.0900
     38 H38        -0.9476    2.7987   47.4624 H       1  ZINC000864730443    0.0800
     39 H39         1.0371    2.2817   46.2322 H       1  ZINC000864730443    0.4000
     40 H40         1.3511    0.9565   43.6979 H       1  ZINC000864730443    0.0700
     41 H41         0.3878    2.4460   43.5513 H       1  ZINC000864730443    0.0700
     42 H42         2.2727    3.6863   43.6011 H       1  ZINC000864730443    0.0800
     43 H43         2.6941    3.0017   45.1892 H       1  ZINC000864730443    0.0800
     44 H44         4.5731    0.8956   45.1403 H       1  ZINC000864730443    0.0900
     45 H45         2.9441    0.2540   44.7364 H       1  ZINC000864730443    0.0800
     46 H46         5.5549   -0.0167   43.1398 H       1  ZINC000864730443    0.0800
     47 H47         4.3255   -1.2778   43.4895 H       1  ZINC000864730443    0.0800
     48 H48         4.3837    0.2110   41.1311 H       1  ZINC000864730443    0.0700
     49 H49         2.9047   -0.5270   41.8040 H       1  ZINC000864730443    0.0700
     50 H50         1.0764    1.2730   48.0414 H       1  ZINC000864730443    0.0800
     51 H51         0.0244    0.3537   49.1469 H       1  ZINC000864730443    0.0800
     52 H52         1.4921   -0.7575   46.7096 H       1  ZINC000864730443    0.0900
     53 H53         1.9054   -1.0602   48.4155 H       1  ZINC000864730443    0.0800
     54 H54         0.5779   -2.9324   47.4301 H       1  ZINC000864730443    0.1000
     55 H55        -0.2811   -2.1420   48.7740 H       1  ZINC000864730443    0.0500
     56 H56        -2.1300   -0.6550   48.2512 H       1  ZINC000864730443    0.0700
     57 H57        -2.5618   -0.4071   46.5421 H       1  ZINC000864730443    0.1000
@<TRIPOS>BOND
     1     1     2    1
     2     1    27    1
     3     1    28    1
     4     1    29    1
     5     2     3    1
     6     2     4    1
     7     2     5    1
     8     3    30    1
     9     3    31    1
    10     3    32    1
    11     4    33    1
    12     4    34    1
    13     4    35    1
    14     5     6    1
    15     6     7    2
    16     6     8   am
    17     8     9    1
    18     8    36    1
    19     9    10    1
    20     9    37    1
    21     9    38    1
    22    10    26    1
    23    10    11    1
    24    10    22    1
    25    11    12    2
    26    11    13   am
    27    13    14    1
    28    13    39    1
    29    14    15    1
    30    14    40    1
    31    14    41    1
    32    15    16    1
    33    15    42    1
    34    15    43    1
    35    16    17    1
    36    16    21    1
    37    16    18    1
    38    18    19    1
    39    18    44    1
    40    18    45    1
    41    19    20    1
    42    19    46    1
    43    19    47    1
    44    20    21    1
    45    20    48    1
    46    20    49    1
    47    22    23    1
    48    22    50    1
    49    22    51    1
    50    23    24    1
    51    23    52    1
    52    23    53    1
    53    24    25    1
    54    24    54    1
    55    24    55    1
    56    25    26    1
    57    26    56    1
    58    26    57    1
@<TRIPOS>SUBSTRUCTURE
     1 ZINC000864730443        1 TEMP              0 ****  ****    0 ROOT


##########                                Name:    ZINC000863216249
##########                DOCK_Rotatable_Bonds:                   5
##########                         Heavy_Atoms:                  23
##########                    Molecular_Weight:             396.351
##########                DOCK_Rotatable_Bonds:                   5
##########                       Formal_Charge:         -0.00999944
##########                     HBond_Acceptors:                   5
##########                        HBond_Donors:                   1
##########                         Heavy_Atoms:                  23
##########                          Grid_Score:          -28.351757
##########                     Grid_vdw_energy:          -28.215513
##########                      Grid_es_energy:           -0.136244
##########           Internal_energy_repulsive:           23.686357

@<TRIPOS>MOLECULE
ZINC000863216249
 45 48 1 0 0
SMALL
USER_CHARGES


@<TRIPOS>ATOM
      1 S1         -7.6638    2.6622   57.9009 S.2     1  ZINC000863216249   -0.5900
      2 C2         -8.3817    1.1286   57.6493 C.2     1  ZINC000863216249    0.5600
      3 N3         -8.8402    0.4186   58.6991 N.am    1  ZINC000863216249   -0.6800
      4 C4         -8.7188    0.9567   60.0563 C.3     1  ZINC000863216249    0.1200
      5 C5         -8.6153   -0.1976   61.0551 C.3     1  ZINC000863216249    0.0400
      6 N6         -8.4161    0.3412   62.4072 N.3     1  ZINC000863216249   -0.5300
      7 C7         -8.0539   -0.7258   63.3515 C.3     1  ZINC000863216249    0.0000
      8 C8         -7.7979   -0.1136   64.7312 C.3     1  ZINC000863216249    0.0600
      9 O9         -8.9592    0.6086   65.1497 O.3     1  ZINC000863216249   -0.3800
     10 C10        -9.3400    1.6558   64.2532 C.3     1  ZINC000863216249    0.0600
     11 C11        -9.6115    1.0616   62.8687 C.3     1  ZINC000863216249    0.0200
     12 N12        -8.4935    0.6336   56.4006 N.am    1  ZINC000863216249   -0.5100
     13 C13        -8.0335    1.3106   55.1829 C.3     1  ZINC000863216249    0.1200
     14 C14        -8.3836    0.3503   54.0419 C.3     1  ZINC000863216249   -0.1100
     15 C15        -8.8464    0.8608   52.6828 C.3     1  ZINC000863216249   -0.1500
     16 C16        -7.4775    0.1900   52.8273 C.3     1  ZINC000863216249   -0.1500
     17 C17        -9.0344   -0.8346   54.7076 C.ar    1  ZINC000863216249   -0.0700
     18 C18        -9.5530   -2.0042   54.1864 C.ar    1  ZINC000863216249   -0.0800
     19 C19       -10.1070   -2.9539   55.0244 C.ar    1  ZINC000863216249   -0.1000
     20 C20       -10.1415   -2.7310   56.3893 C.ar    1  ZINC000863216249   -0.0700
     21 Br21      -10.8983   -4.0288   57.5378 Br      1  ZINC000863216249   -0.0400
     22 C22        -9.6251   -1.5646   56.9149 C.ar    1  ZINC000863216249   -0.0900
     23 C23        -9.0595   -0.6036   56.0760 C.ar    1  ZINC000863216249    0.1400
     24 H24        -9.2505   -0.4486   58.5561 H       1  ZINC000863216249    0.4000
     25 H25        -7.8244    1.5761   60.1229 H       1  ZINC000863216249    0.0900
     26 H26        -9.5966    1.5599   60.2879 H       1  ZINC000863216249    0.1000
     27 H27        -9.5339   -0.7838   61.0293 H       1  ZINC000863216249    0.0900
     28 H28        -7.7708   -0.8335   60.7893 H       1  ZINC000863216249    0.0400
     29 H29        -8.8700   -1.4452   63.4182 H       1  ZINC000863216249    0.0500
     30 H30        -7.1518   -1.2291   63.0035 H       1  ZINC000863216249    0.1000
     31 H31        -7.5849   -0.9071   65.4475 H       1  ZINC000863216249    0.1000
     32 H32        -6.9472    0.5656   64.6759 H       1  ZINC000863216249    0.0600
     33 H33       -10.2423    2.1422   64.6240 H       1  ZINC000863216249    0.1000
     34 H34        -8.5341    2.3865   64.1840 H       1  ZINC000863216249    0.0600
     35 H35        -9.8466    1.8630   62.1683 H       1  ZINC000863216249    0.0900
     36 H36       -10.4526    0.3708   62.9277 H       1  ZINC000863216249    0.0500
     37 H37        -8.5570    2.2581   55.0551 H       1  ZINC000863216249    0.0900
     38 H38        -6.9565    1.4740   55.2238 H       1  ZINC000863216249    0.0900
     39 H39        -9.6309    0.2999   52.1747 H       1  ZINC000863216249    0.1100
     40 H40        -8.8648    1.9398   52.5298 H       1  ZINC000863216249    0.1100
     41 H41        -6.5955    0.8279   52.7694 H       1  ZINC000863216249    0.1100
     42 H42        -7.3616   -0.8120   52.4143 H       1  ZINC000863216249    0.1100
     43 H43        -9.5259   -2.1770   53.1207 H       1  ZINC000863216249    0.1400
     44 H44       -10.5121   -3.8673   54.6145 H       1  ZINC000863216249    0.1400
     45 H45        -9.6552   -1.3962   57.9813 H       1  ZINC000863216249    0.1900
@<TRIPOS>BOND
     1     1     2    2
     2     2     3   am
     3     2    12   am
     4     3     4    1
     5     3    24    1
     6     4     5    1
     7     4    25    1
     8     4    26    1
     9     5     6    1
    10     5    27    1
    11     5    28    1
    12     6    11    1
    13     6     7    1
    14     7     8    1
    15     7    29    1
    16     7    30    1
    17     8     9    1
    18     8    31    1
    19     8    32    1
    20     9    10    1
    21    10    11    1
    22    10    33    1
    23    10    34    1
    24    11    35    1
    25    11    36    1
    26    12    23    1
    27    12    13    1
    28    13    14    1
    29    13    37    1
    30    13    38    1
    31    14    16    1
    32    14    15    1
    33    14    17    1
    34    15    16    1
    35    15    39    1
    36    15    40    1
    37    16    41    1
    38    16    42    1
    39    17    23   ar
    40    17    18   ar
    41    18    19   ar
    42    18    43    1
    43    19    20   ar
    44    19    44    1
    45    20    21    1
    46    20    22   ar
    47    22    23   ar
    48    22    45    1
@<TRIPOS>SUBSTRUCTURE
     1 ZINC000863216249        1 TEMP              0 ****  ****    0 ROOT


##########                                Name:    ZINC000867639366
##########                DOCK_Rotatable_Bonds:                   6
##########                         Heavy_Atoms:                  25
##########                    Molecular_Weight:             388.509
##########                DOCK_Rotatable_Bonds:                   6
##########                       Formal_Charge:          0.00999961
##########                     HBond_Acceptors:                   9
##########                        HBond_Donors:                   1
##########                         Heavy_Atoms:                  25
##########                          Grid_Score:          -28.348921
##########                     Grid_vdw_energy:          -27.739439
##########                      Grid_es_energy:           -0.609481
##########           Internal_energy_repulsive:           39.065884

@<TRIPOS>MOLECULE
ZINC000867639366
 49 51 1 0 0
SMALL
USER_CHARGES


@<TRIPOS>ATOM
      1 C1         -8.3955   -0.7950   63.9959 C.3     1  ZINC000867639366    0.0300
      2 O2         -9.4990   -0.4130   63.1722 O.3     1  ZINC000867639366   -0.3800
      3 C3         -9.3424    0.8618   62.5454 C.3     1  ZINC000867639366    0.0800
      4 H4         -8.6819    1.4849   63.1483 H       1  ZINC000867639366    0.0800
      5 C5        -10.7086    1.5396   62.4182 C.3     1  ZINC000867639366   -0.1400
      6 C6        -11.6473    0.6498   61.6001 C.3     1  ZINC000867639366   -0.1200
      7 C7        -11.0687    0.4604   60.1944 C.3     1  ZINC000867639366    0.1500
      8 H8        -11.0547    1.4175   59.6730 H       1  ZINC000867639366    0.0800
      9 C9        -11.9299   -0.5356   59.4151 C.3     1  ZINC000867639366   -0.1900
     10 N10        -9.6983   -0.0560   60.3127 N.am    1  ZINC000867639366   -0.9800
     11 S11        -9.2449   -1.4354   59.5164 S.o2    1  ZINC000867639366    2.6900
     12 O12        -7.8442   -1.5711   59.7145 O.2     1  ZINC000867639366   -0.9500
     13 O13       -10.1824   -2.4378   59.8843 O.2     1  ZINC000867639366   -0.9400
     14 C14        -9.4779   -1.1441   57.7943 C.ar    1  ZINC000867639366   -0.6300
     15 C15        -9.3086    0.1276   57.2794 C.ar    1  ZINC000867639366   -0.0500
     16 C16        -9.4914    0.3561   55.9284 C.ar    1  ZINC000867639366   -0.0400
     17 C17        -9.8428   -0.6870   55.0922 C.ar    1  ZINC000867639366   -0.6300
     18 S18       -10.0763   -0.3956   53.3702 S.o2    1  ZINC000867639366    2.7000
     19 O19       -10.1971   -1.6730   52.7598 O.2     1  ZINC000867639366   -0.9400
     20 O20       -11.0718    0.6131   53.2654 O.2     1  ZINC000867639366   -0.9500
     21 N21        -8.6744    0.2689   52.7910 N.am    1  ZINC000867639366   -1.0800
     22 C22        -7.4155   -0.4731   52.8928 C.3     1  ZINC000867639366    0.0800
     23 C23        -7.1107   -1.5007   51.8010 C.3     1  ZINC000867639366   -0.1800
     24 C24        -6.3370   -0.1816   51.8474 C.3     1  ZINC000867639366   -0.1900
     25 C25       -10.0106   -1.9589   55.6069 C.ar    1  ZINC000867639366   -0.0400
     26 C26        -9.8241   -2.1883   56.9573 C.ar    1  ZINC000867639366   -0.0400
     27 C27        -8.7370    0.6749   61.1507 C.3     1  ZINC000867639366    0.1200
     28 H28        -7.4901   -0.8431   63.3910 H       1  ZINC000867639366    0.0400
     29 H29        -8.2634   -0.0602   64.7901 H       1  ZINC000867639366    0.0400
     30 H30        -8.5916   -1.7733   64.4350 H       1  ZINC000867639366    0.0900
     31 H31       -11.1302    1.6961   63.4111 H       1  ZINC000867639366    0.0700
     32 H32       -10.5918    2.5009   61.9179 H       1  ZINC000867639366    0.0700
     33 H33       -11.7450   -0.3205   62.0870 H       1  ZINC000867639366    0.0800
     34 H34       -12.6270    1.1223   61.5296 H       1  ZINC000867639366    0.0800
     35 H35       -12.9070   -0.0946   59.2179 H       1  ZINC000867639366    0.0700
     36 H36       -11.4424   -0.7760   58.4704 H       1  ZINC000867639366    0.0600
     37 H37       -12.0538   -1.4457   60.0019 H       1  ZINC000867639366    0.1000
     38 H38        -9.0342    0.9426   57.9327 H       1  ZINC000867639366    0.1600
     39 H39        -9.3600    1.3498   55.5262 H       1  ZINC000867639366    0.1500
     40 H40        -8.6869    1.1494   52.3843 H       1  ZINC000867639366    0.4200
     41 H41        -7.0853   -0.7020   53.9061 H       1  ZINC000867639366    0.1400
     42 H42        -6.5802   -2.4061   52.0958 H       1  ZINC000867639366    0.1100
     43 H43        -7.8471   -1.6246   51.0069 H       1  ZINC000867639366    0.1000
     44 H44        -6.5643    0.5623   51.0838 H       1  ZINC000867639366    0.1000
     45 H45        -5.2975   -0.2190   52.1727 H       1  ZINC000867639366    0.1000
     46 H46       -10.2848   -2.7740   54.9536 H       1  ZINC000867639366    0.1500
     47 H47        -9.9552   -3.1820   57.3594 H       1  ZINC000867639366    0.1500
     48 H48        -8.5328    1.6495   60.7074 H       1  ZINC000867639366    0.0900
     49 H49        -7.8112    0.1047   61.2270 H       1  ZINC000867639366    0.1000
@<TRIPOS>BOND
     1     1     2    1
     2     1    28    1
     3     1    29    1
     4     1    30    1
     5     2     3    1
     6     3     4    1
     7     3    27    1
     8     3     5    1
     9     5     6    1
    10     5    31    1
    11     5    32    1
    12     6     7    1
    13     6    33    1
    14     6    34    1
    15     7     8    1
    16     7     9    1
    17     7    10    1
    18     9    35    1
    19     9    36    1
    20     9    37    1
    21    10    11   am
    22    10    27    1
    23    11    12    2
    24    11    13    2
    25    11    14    1
    26    14    26   ar
    27    14    15   ar
    28    15    16   ar
    29    15    38    1
    30    16    17   ar
    31    16    39    1
    32    17    18    1
    33    17    25   ar
    34    18    19    2
    35    18    20    2
    36    18    21   am
    37    21    22    1
    38    21    40    1
    39    22    24    1
    40    22    23    1
    41    22    41    1
    42    23    24    1
    43    23    42    1
    44    23    43    1
    45    24    44    1
    46    24    45    1
    47    25    26   ar
    48    25    46    1
    49    26    47    1
    50    27    48    1
    51    27    49    1
@<TRIPOS>SUBSTRUCTURE
     1 ZINC000867639366        1 TEMP              0 ****  ****    0 ROOT


##########                                Name:    ZINC000790735374
##########                DOCK_Rotatable_Bonds:                   5
##########                         Heavy_Atoms:                  25
##########                    Molecular_Weight:             353.445
##########                DOCK_Rotatable_Bonds:                   5
##########                       Formal_Charge:                   0
##########                     HBond_Acceptors:                   6
##########                        HBond_Donors:                   1
##########                         Heavy_Atoms:                  25
##########                          Grid_Score:          -28.344826
##########                     Grid_vdw_energy:          -27.403097
##########                      Grid_es_energy:           -0.941728
##########           Internal_energy_repulsive:           12.897815

@<TRIPOS>MOLECULE
ZINC000790735374
 44 47 1 0 0
SMALL
USER_CHARGES


@<TRIPOS>ATOM
      1 O1         -5.9167    2.3134   52.1589 O.2     1  ZINC000790735374   -0.5100
      2 C2         -5.4202    1.4454   51.4727 C.2     1  ZINC000790735374    0.5000
      3 N3         -4.3245    1.7137   50.7352 N.am    1  ZINC000790735374   -0.7200
      4 C4         -3.7369    3.0555   50.7576 C.3     1  ZINC000790735374    0.1400
      5 C5         -2.2614    2.9729   50.3617 C.3     1  ZINC000790735374   -0.0300
      6 H6         -1.8922    3.9734   50.1358 H       1  ZINC000790735374    0.1100
      7 S7         -1.3087    2.2793   51.7398 S.3     1  ZINC000790735374   -0.2400
      8 C8          0.2636    1.8904   50.9085 C.3     1  ZINC000790735374   -0.0800
      9 C9         -0.0176    0.8238   49.8605 C.3     1  ZINC000790735374   -0.0800
     10 C10        -1.1286    1.1872   48.9168 C.ar    1  ZINC000790735374   -0.0700
     11 C11        -1.1101    0.4906   47.7038 C.ar    1  ZINC000790735374   -0.1200
     12 C12        -2.0692    0.6985   46.7407 C.ar    1  ZINC000790735374   -0.1100
     13 C13        -3.0791    1.6139   46.9718 C.ar    1  ZINC000790735374   -0.1200
     14 C14        -3.0998    2.3070   48.1605 C.ar    1  ZINC000790735374   -0.1100
     15 C15        -2.1211    2.1013   49.1383 C.ar    1  ZINC000790735374   -0.0800
     16 C16        -6.0246    0.0651   51.4496 C.3     1  ZINC000790735374    0.0300
     17 H17        -5.2532   -0.6942   51.3208 H       1  ZINC000790735374    0.1500
     18 C18        -6.8529   -0.1984   52.7296 C.3     1  ZINC000790735374   -0.1400
     19 C19        -8.2549    0.1914   52.3012 C.2     1  ZINC000790735374    0.1200
     20 C20        -9.3961    0.4444   53.2030 C.ar    1  ZINC000790735374   -0.1000
     21 C21        -9.2425    0.3446   54.5910 C.ar    1  ZINC000790735374   -0.0400
     22 C22       -10.3434    0.5922   55.3922 C.ar    1  ZINC000790735374   -0.1700
     23 C23       -11.5486    0.9271   54.8021 C.ar    1  ZINC000790735374    0.1200
     24 N24       -11.6644    1.0139   53.4907 N.ar    1  ZINC000790735374   -0.4800
     25 C25       -10.6455    0.7930   52.6864 C.ar    1  ZINC000790735374    0.1400
     26 N26        -8.2786    0.2638   51.0126 N.2     1  ZINC000790735374   -0.2700
     27 O27        -7.0300   -0.0409   50.4213 O.3     1  ZINC000790735374   -0.1600
     28 H28        -3.9250    1.0185   50.1893 H       1  ZINC000790735374    0.4100
     29 H29        -4.2670    3.6961   50.0528 H       1  ZINC000790735374    0.0800
     30 H30        -3.8211    3.4722   51.7613 H       1  ZINC000790735374    0.0900
     31 H31         0.6586    2.7855   50.4278 H       1  ZINC000790735374    0.0900
     32 H32         0.9825    1.5131   51.6358 H       1  ZINC000790735374    0.1100
     33 H33         0.8906    0.6555   49.2818 H       1  ZINC000790735374    0.0900
     34 H34        -0.2810   -0.1037   50.3688 H       1  ZINC000790735374    0.0900
     35 H35        -0.3242   -0.2270   47.5194 H       1  ZINC000790735374    0.1200
     36 H36        -2.0336    0.1510   45.8104 H       1  ZINC000790735374    0.1300
     37 H37        -3.8431    1.7835   46.2275 H       1  ZINC000790735374    0.1300
     38 H38        -3.8887    3.0217   48.3425 H       1  ZINC000790735374    0.1300
     39 H39        -6.8119   -1.2517   53.0072 H       1  ZINC000790735374    0.1200
     40 H40        -6.5094    0.4325   53.5495 H       1  ZINC000790735374    0.1100
     41 H41        -8.2895    0.0808   55.0252 H       1  ZINC000790735374    0.1500
     42 H42       -10.2623    0.5243   56.4670 H       1  ZINC000790735374    0.1500
     43 H43       -12.4094    1.1204   55.4252 H       1  ZINC000790735374    0.1600
     44 H44       -10.7794    0.8741   51.6179 H       1  ZINC000790735374    0.1600
@<TRIPOS>BOND
     1     1     2    2
     2     2     3   am
     3     2    16    1
     4     3     4    1
     5     3    28    1
     6     4     5    1
     7     4    29    1
     8     4    30    1
     9     5     6    1
    10     5    15    1
    11     5     7    1
    12     7     8    1
    13     8     9    1
    14     8    31    1
    15     8    32    1
    16     9    10    1
    17     9    33    1
    18     9    34    1
    19    10    15   ar
    20    10    11   ar
    21    11    12   ar
    22    11    35    1
    23    12    13   ar
    24    12    36    1
    25    13    14   ar
    26    13    37    1
    27    14    15   ar
    28    14    38    1
    29    16    17    1
    30    16    27    1
    31    16    18    1
    32    18    19    1
    33    18    39    1
    34    18    40    1
    35    19    20    1
    36    19    26    2
    37    20    25   ar
    38    20    21   ar
    39    21    22   ar
    40    21    41    1
    41    22    23   ar
    42    22    42    1
    43    23    24   ar
    44    23    43    1
    45    24    25   ar
    46    25    44    1
    47    26    27    1
@<TRIPOS>SUBSTRUCTURE
     1 ZINC000790735374        1 TEMP              0 ****  ****    0 ROOT


##########                                Name:    ZINC000463741321
##########                DOCK_Rotatable_Bonds:                   7
##########                         Heavy_Atoms:                  26
##########                    Molecular_Weight:             354.467
##########                DOCK_Rotatable_Bonds:                   7
##########                       Formal_Charge:         -6.4075e-07
##########                     HBond_Acceptors:                   4
##########                        HBond_Donors:                   1
##########                         Heavy_Atoms:                  26
##########                          Grid_Score:          -28.327330
##########                     Grid_vdw_energy:          -28.391205
##########                      Grid_es_energy:            0.063874
##########           Internal_energy_repulsive:           14.893207

@<TRIPOS>MOLECULE
ZINC000463741321
 53 55 1 0 0
SMALL
USER_CHARGES


@<TRIPOS>ATOM
      1 C1        -13.2043   -2.6967   58.0935 C.3     1  ZINC000463741321   -0.1500
      2 C2        -11.7437   -2.2554   57.9806 C.3     1  ZINC000463741321   -0.1100
      3 H3        -11.6319   -1.2572   58.4038 H       1  ZINC000463741321    0.1000
      4 C4        -10.8538   -3.2366   58.7463 C.3     1  ZINC000463741321   -0.0900
      5 C5        -10.6550   -2.7344   60.1778 C.3     1  ZINC000463741321   -0.0800
      6 C6         -9.9642   -1.3955   60.1491 C.ar    1  ZINC000463741321   -0.1200
      7 C7         -8.8245   -1.2220   59.3873 C.ar    1  ZINC000463741321   -0.0900
      8 C8         -8.1904    0.0065   59.3607 C.ar    1  ZINC000463741321   -0.1300
      9 C9         -8.6955    1.0621   60.0963 C.ar    1  ZINC000463741321   -0.1000
     10 C10        -9.8351    0.8908   60.8593 C.ar    1  ZINC000463741321   -0.1500
     11 C11       -10.4746   -0.3368   60.8815 C.ar    1  ZINC000463741321    0.1000
     12 F12       -11.5886   -0.5054   61.6270 F       1  ZINC000463741321   -0.1400
     13 C13       -11.3360   -2.2344   56.5300 C.2     1  ZINC000463741321    0.5200
     14 O14       -11.0521   -3.2692   55.9647 O.2     1  ZINC000463741321   -0.5300
     15 N15       -11.2868   -1.0656   55.8606 N.am    1  ZINC000463741321   -0.7300
     16 C16       -10.8888   -1.0450   54.4508 C.3     1  ZINC000463741321    0.1500
     17 H17       -10.7312   -2.0655   54.1022 H       1  ZINC000463741321    0.1000
     18 C18       -11.9911   -0.3848   53.6180 C.3     1  ZINC000463741321   -0.1300
     19 C19       -11.5417   -0.3131   52.1561 C.3     1  ZINC000463741321   -0.1200
     20 C20       -10.2266    0.4648   52.0693 C.3     1  ZINC000463741321    0.0600
     21 N21        -9.2045   -0.2072   52.8819 N.3     1  ZINC000463741321   -0.4800
     22 C22        -7.9576    0.4013   52.7212 C.ar    1  ZINC000463741321    0.1100
     23 C23        -7.7418    1.6851   53.2060 C.ar    1  ZINC000463741321   -0.1700
     24 C24        -6.5076    2.2836   53.0459 C.ar    1  ZINC000463741321   -0.0900
     25 C25        -5.4873    1.6067   52.4033 C.ar    1  ZINC000463741321   -0.1500
     26 C26        -5.6987    0.3286   51.9194 C.ar    1  ZINC000463741321   -0.0900
     27 C27        -6.9288   -0.2780   52.0811 C.ar    1  ZINC000463741321   -0.1400
     28 C28        -9.5921   -0.2467   54.2978 C.3     1  ZINC000463741321    0.0500
     29 H29       -13.3161   -3.6949   57.6702 H       1  ZINC000463741321    0.0600
     30 H30       -13.4992   -2.7119   59.1427 H       1  ZINC000463741321    0.0700
     31 H31       -13.8383   -1.9977   57.5480 H       1  ZINC000463741321    0.0600
     32 H32       -11.3291   -4.2173   58.7681 H       1  ZINC000463741321    0.0700
     33 H33        -9.8862   -3.3128   58.2501 H       1  ZINC000463741321    0.0700
     34 H34       -11.6247   -2.6326   60.6651 H       1  ZINC000463741321    0.0800
     35 H35       -10.0434   -3.4470   60.7311 H       1  ZINC000463741321    0.0800
     36 H36        -8.4286   -2.0463   58.8128 H       1  ZINC000463741321    0.1300
     37 H37        -7.2996    0.1411   58.7651 H       1  ZINC000463741321    0.1300
     38 H38        -8.1991    2.0212   60.0751 H       1  ZINC000463741321    0.1300
     39 H39       -10.2292    1.7156   61.4345 H       1  ZINC000463741321    0.1400
     40 H40       -11.5150   -0.2381   56.3123 H       1  ZINC000463741321    0.4000
     41 H41       -12.9047   -0.9750   53.6898 H       1  ZINC000463741321    0.0700
     42 H42       -12.1765    0.6221   53.9919 H       1  ZINC000463741321    0.0600
     43 H43       -11.3938   -1.3220   51.7709 H       1  ZINC000463741321    0.0800
     44 H44       -12.3043    0.1945   51.5654 H       1  ZINC000463741321    0.0800
     45 H45        -9.8965    0.5053   51.0313 H       1  ZINC000463741321    0.0900
     46 H46       -10.3785    1.4778   52.4418 H       1  ZINC000463741321    0.0500
     47 H47        -8.5385    2.2146   53.7074 H       1  ZINC000463741321    0.1200
     48 H48        -6.3392    3.2816   53.4226 H       1  ZINC000463741321    0.1200
     49 H49        -4.5233    2.0774   52.2787 H       1  ZINC000463741321    0.1200
     50 H50        -4.8997   -0.1974   51.4179 H       1  ZINC000463741321    0.1200
     51 H51        -7.0932   -1.2763   51.7033 H       1  ZINC000463741321    0.1300
     52 H52        -9.7472    0.7695   54.6603 H       1  ZINC000463741321    0.0500
     53 H53        -8.8011   -0.7224   54.8777 H       1  ZINC000463741321    0.0900
@<TRIPOS>BOND
     1     1     2    1
     2     1    29    1
     3     1    30    1
     4     1    31    1
     5     2     3    1
     6     2     4    1
     7     2    13    1
     8     4     5    1
     9     4    32    1
    10     4    33    1
    11     5     6    1
    12     5    34    1
    13     5    35    1
    14     6    11   ar
    15     6     7   ar
    16     7     8   ar
    17     7    36    1
    18     8     9   ar
    19     8    37    1
    20     9    10   ar
    21     9    38    1
    22    10    11   ar
    23    10    39    1
    24    11    12    1
    25    13    14    2
    26    13    15   am
    27    15    16    1
    28    15    40    1
    29    16    17    1
    30    16    28    1
    31    16    18    1
    32    18    19    1
    33    18    41    1
    34    18    42    1
    35    19    20    1
    36    19    43    1
    37    19    44    1
    38    20    21    1
    39    20    45    1
    40    20    46    1
    41    21    22    1
    42    21    28    1
    43    22    27   ar
    44    22    23   ar
    45    23    24   ar
    46    23    47    1
    47    24    25   ar
    48    24    48    1
    49    25    26   ar
    50    25    49    1
    51    26    27   ar
    52    26    50    1
    53    27    51    1
    54    28    52    1
    55    28    53    1
@<TRIPOS>SUBSTRUCTURE
     1 ZINC000463741321        1 TEMP              0 ****  ****    0 ROOT


##########                                Name:    ZINC000486710336
##########                DOCK_Rotatable_Bonds:                   6
##########                         Heavy_Atoms:                  31
##########                    Molecular_Weight:             420.555
##########                DOCK_Rotatable_Bonds:                   6
##########                       Formal_Charge:         1.49012e-07
##########                     HBond_Acceptors:                   6
##########                        HBond_Donors:                   1
##########                         Heavy_Atoms:                  31
##########                          Grid_Score:          -28.290604
##########                     Grid_vdw_energy:          -28.955292
##########                      Grid_es_energy:            0.664689
##########           Internal_energy_repulsive:           55.835842

@<TRIPOS>MOLECULE
ZINC000486710336
 63 67 1 0 0
SMALL
USER_CHARGES


@<TRIPOS>ATOM
      1 C1         -6.5067    4.4311   53.6499 C.3     1  ZINC000486710336    0.1000
      2 N2         -6.4176    3.0411   53.1958 N.pl3   1  ZINC000486710336   -0.3900
      3 N3         -7.4690    2.1165   53.1572 N.2     1  ZINC000486710336   -0.2800
      4 C4         -7.0066    0.9835   52.6937 C.2     1  ZINC000486710336    0.1000
      5 C5         -7.8067   -0.2773   52.4905 C.3     1  ZINC000486710336   -0.0100
      6 C6         -8.9227   -0.3893   53.5586 C.3     1  ZINC000486710336   -0.1200
      7 C7         -9.9570   -1.3186   52.8762 C.3     1  ZINC000486710336   -0.1200
      8 C8         -9.9366   -0.8847   51.3959 C.3     1  ZINC000486710336   -0.1200
      9 C9         -8.5694   -0.2227   51.1507 C.3     1  ZINC000486710336   -0.1100
     10 C10        -5.6459    1.1403   52.4193 C.2     1  ZINC000486710336   -0.2600
     11 C11        -5.3017    2.4207   52.7316 C.2     1  ZINC000486710336    0.3000
     12 N12        -4.0365    2.9874   52.6054 N.am    1  ZINC000486710336   -0.6200
     13 C13        -3.2350    2.6258   51.5841 C.2     1  ZINC000486710336    0.5100
     14 O14        -3.6157    1.8047   50.7750 O.2     1  ZINC000486710336   -0.4800
     15 C15        -1.8787    3.2349   51.4477 C.2     1  ZINC000486710336    0.5300
     16 O16        -1.2171    3.4708   52.4375 O.2     1  ZINC000486710336   -0.5100
     17 N17        -1.3889    3.5228   50.2255 N.am    1  ZINC000486710336   -0.5800
     18 C18        -2.0763    3.2976   48.9412 C.3     1  ZINC000486710336    0.1000
     19 C19        -1.1106    3.7475   47.8224 C.3     1  ZINC000486710336   -0.0600
     20 H20        -1.3228    4.7724   47.5176 H       1  ZINC000486710336    0.1000
     21 C21        -1.1883    2.8140   46.6419 C.ar    1  ZINC000486710336   -0.0700
     22 C22        -0.1761    2.8043   45.7006 C.ar    1  ZINC000486710336   -0.1100
     23 C23        -0.2473    1.9480   44.6178 C.ar    1  ZINC000486710336   -0.1200
     24 C24        -1.3307    1.1012   44.4765 C.ar    1  ZINC000486710336   -0.1200
     25 C25        -2.3426    1.1103   45.4181 C.ar    1  ZINC000486710336   -0.1200
     26 C26        -2.2692    1.9635   46.5033 C.ar    1  ZINC000486710336   -0.1100
     27 C27         0.2831    3.6540   48.5159 C.3     1  ZINC000486710336   -0.0800
     28 H28         1.0315    4.2925   48.0466 H       1  ZINC000486710336    0.1100
     29 C29         0.6820    2.1769   48.4976 C.3     1  ZINC000486710336   -0.1100
     30 C30         1.8057    1.9093   49.4960 C.3     1  ZINC000486710336   -0.1200
     31 C31         1.2987    2.2365   50.9046 C.3     1  ZINC000486710336   -0.1100
     32 C32         0.9685    3.7279   50.9650 C.3     1  ZINC000486710336   -0.1400
     33 C33        -0.0820    4.1205   49.9397 C.3     1  ZINC000486710336    0.1400
     34 H34        -0.1946    5.2046   49.9555 H       1  ZINC000486710336    0.0800
     35 H35        -6.7611    5.0732   52.8066 H       1  ZINC000486710336    0.0800
     36 H36        -7.2779    4.5144   54.4157 H       1  ZINC000486710336    0.1000
     37 H37        -5.5474    4.7399   54.0651 H       1  ZINC000486710336    0.0800
     38 H38        -7.1553   -1.1507   52.5232 H       1  ZINC000486710336    0.0900
     39 H39        -8.5388   -0.8436   54.4721 H       1  ZINC000486710336    0.0700
     40 H40        -9.3589    0.5879   53.7656 H       1  ZINC000486710336    0.0800
     41 H41        -9.6547   -2.3615   52.9722 H       1  ZINC000486710336    0.0700
     42 H42       -10.9476   -1.1666   53.3047 H       1  ZINC000486710336    0.0700
     43 H43       -10.0512   -1.7553   50.7500 H       1  ZINC000486710336    0.0600
     44 H44       -10.7372   -0.1700   51.2053 H       1  ZINC000486710336    0.0600
     45 H45        -8.7065    0.8134   50.8410 H       1  ZINC000486710336    0.0700
     46 H46        -8.0204   -0.7719   50.3857 H       1  ZINC000486710336    0.0700
     47 H47        -4.9852    0.3821   52.0257 H       1  ZINC000486710336    0.1700
     48 H48        -3.7319    3.6426   53.2525 H       1  ZINC000486710336    0.4200
     49 H49        -2.3101    2.2392   48.8260 H       1  ZINC000486710336    0.0900
     50 H50        -2.9913    3.8886   48.9014 H       1  ZINC000486710336    0.0800
     51 H51         0.6703    3.4660   45.8111 H       1  ZINC000486710336    0.1200
     52 H52         0.5433    1.9410   43.8821 H       1  ZINC000486710336    0.1200
     53 H53        -1.3867    0.4327   43.6300 H       1  ZINC000486710336    0.1200
     54 H54        -3.1892    0.4489   45.3075 H       1  ZINC000486710336    0.1200
     55 H55        -3.0598    1.9706   47.2391 H       1  ZINC000486710336    0.1200
     56 H56        -0.1834    1.5681   48.7593 H       1  ZINC000486710336    0.0700
     57 H57         1.0195    1.9085   47.4966 H       1  ZINC000486710336    0.0700
     58 H58         2.0965    0.8599   49.4466 H       1  ZINC000486710336    0.0600
     59 H59         2.6626    2.5403   49.2600 H       1  ZINC000486710336    0.0600
     60 H60         0.4026    1.6533   51.1168 H       1  ZINC000486710336    0.0500
     61 H61         2.0716    2.0018   51.6366 H       1  ZINC000486710336    0.0600
     62 H62         0.6005    3.9720   51.9615 H       1  ZINC000486710336    0.1000
     63 H63         1.8740    4.3023   50.7692 H       1  ZINC000486710336    0.0700
@<TRIPOS>BOND
     1     1     2    1
     2     1    35    1
     3     1    36    1
     4     1    37    1
     5     2    11    1
     6     2     3    1
     7     3     4    2
     8     4     5    1
     9     4    10    1
    10     5     9    1
    11     5     6    1
    12     5    38    1
    13     6     7    1
    14     6    39    1
    15     6    40    1
    16     7     8    1
    17     7    41    1
    18     7    42    1
    19     8     9    1
    20     8    43    1
    21     8    44    1
    22     9    45    1
    23     9    46    1
    24    10    11    2
    25    10    47    1
    26    11    12    1
    27    12    13   am
    28    12    48    1
    29    13    14    2
    30    13    15    1
    31    15    16    2
    32    15    17   am
    33    17    33    1
    34    17    18    1
    35    18    19    1
    36    18    49    1
    37    18    50    1
    38    19    20    1
    39    19    21    1
    40    19    27    1
    41    21    26   ar
    42    21    22   ar
    43    22    23   ar
    44    22    51    1
    45    23    24   ar
    46    23    52    1
    47    24    25   ar
    48    24    53    1
    49    25    26   ar
    50    25    54    1
    51    26    55    1
    52    27    28    1
    53    27    33    1
    54    27    29    1
    55    29    30    1
    56    29    56    1
    57    29    57    1
    58    30    31    1
    59    30    58    1
    60    30    59    1
    61    31    32    1
    62    31    60    1
    63    31    61    1
    64    32    33    1
    65    32    62    1
    66    32    63    1
    67    33    34    1
@<TRIPOS>SUBSTRUCTURE
     1 ZINC000486710336        1 TEMP              0 ****  ****    0 ROOT


##########                                Name:    ZINC000443933644
##########                DOCK_Rotatable_Bonds:                   8
##########                         Heavy_Atoms:                  27
##########                    Molecular_Weight:             402.438
##########                DOCK_Rotatable_Bonds:                   8
##########                       Formal_Charge:          0.00999922
##########                     HBond_Acceptors:                   9
##########                        HBond_Donors:                   2
##########                         Heavy_Atoms:                  27
##########                          Grid_Score:          -28.287533
##########                     Grid_vdw_energy:          -26.531666
##########                      Grid_es_energy:           -1.755867
##########           Internal_energy_repulsive:           34.198528

@<TRIPOS>MOLECULE
ZINC000443933644
 48 49 1 0 0
SMALL
USER_CHARGES


@<TRIPOS>ATOM
      1 C1        -12.3188    2.3693   55.8624 C.3     1  ZINC000443933644   -0.1500
      2 C2        -12.2441    0.8446   55.9662 C.3     1  ZINC000443933644   -0.1400
      3 C3        -13.4073    0.3339   56.8188 C.3     1  ZINC000443933644   -0.1000
      4 H4        -14.3511    0.6062   56.3464 H       1  ZINC000443933644    0.1000
      5 C5        -13.3338    0.9633   58.2113 C.3     1  ZINC000443933644   -0.1700
      6 C6        -13.3194   -1.1886   56.9419 C.3     1  ZINC000443933644    0.1200
      7 H7        -13.0001   -1.4538   57.9498 H       1  ZINC000443933644    0.1300
      8 N8        -12.3493   -1.7017   55.9714 N.am    1  ZINC000443933644   -1.1100
      9 S9        -11.3766   -2.9812   56.3703 S.o2    1  ZINC000443933644    2.6900
     10 O10       -12.2404   -4.0195   56.8122 O.2     1  ZINC000443933644   -0.9400
     11 O11       -10.4591   -3.1378   55.2967 O.2     1  ZINC000443933644   -0.9400
     12 C12       -10.4248   -2.4959   57.7715 C.ar    1  ZINC000443933644   -0.7000
     13 C13        -9.4965   -1.4470   57.6616 C.ar    1  ZINC000443933644    0.0500
     14 C14        -9.3068   -0.7667   56.4461 C.ar    1  ZINC000443933644   -0.1400
     15 C15        -8.3993    0.2451   56.3749 C.ar    1  ZINC000443933644   -0.0800
     16 C16        -7.6529    0.6188   57.4908 C.ar    1  ZINC000443933644   -0.1200
     17 C17        -7.8100   -0.0180   58.6840 C.ar    1  ZINC000443933644   -0.0900
     18 C18        -8.7371   -1.0661   58.7954 C.ar    1  ZINC000443933644   -0.0900
     19 C19        -8.9271   -1.7490   60.0155 C.ar    1  ZINC000443933644    0.2300
     20 N20        -8.1894   -1.3909   61.1454 N.am    1  ZINC000443933644   -0.6700
     21 C21        -8.8135   -0.8710   62.2208 C.2     1  ZINC000443933644    0.5100
     22 C22        -8.0172   -0.4845   63.4405 C.3     1  ZINC000443933644   -0.1700
     23 O23       -10.0161   -0.7144   62.2071 O.2     1  ZINC000443933644   -0.5100
     24 C24        -9.8476   -2.7725   60.0818 C.ar    1  ZINC000443933644   -0.1600
     25 C25       -10.5923   -3.1334   58.9630 C.ar    1  ZINC000443933644    0.0400
     26 C26       -14.6928   -1.8030   56.6638 C.3     1  ZINC000443933644    0.4300
     27 F27       -14.9386   -1.7915   55.2866 F       1  ZINC000443933644   -0.1700
     28 F28       -14.7171   -3.1214   57.1309 F       1  ZINC000443933644   -0.1600
     29 F29       -15.6784   -1.0576   57.3196 F       1  ZINC000443933644   -0.1700
     30 H30       -13.2626    2.6560   55.3986 H       1  ZINC000443933644    0.0500
     31 H31       -12.2570    2.8048   56.8597 H       1  ZINC000443933644    0.0600
     32 H32       -11.4901    2.7332   55.2550 H       1  ZINC000443933644    0.0600
     33 H33       -12.3060    0.4091   54.9689 H       1  ZINC000443933644    0.0700
     34 H34       -11.3004    0.5579   56.4300 H       1  ZINC000443933644    0.0900
     35 H35       -13.5133    2.0358   58.1353 H       1  ZINC000443933644    0.0700
     36 H36       -14.0903    0.5130   58.8541 H       1  ZINC000443933644    0.0600
     37 H37       -12.3454    0.7897   58.6368 H       1  ZINC000443933644    0.0700
     38 H38       -12.2767   -1.2921   55.0952 H       1  ZINC000443933644    0.4300
     39 H39        -9.8780   -1.0458   55.5730 H       1  ZINC000443933644    0.1400
     40 H40        -8.2553    0.7658   55.4398 H       1  ZINC000443933644    0.1300
     41 H41        -6.9392    1.4251   57.4078 H       1  ZINC000443933644    0.1300
     42 H42        -7.2242    0.2817   59.5403 H       1  ZINC000443933644    0.1300
     43 H43        -7.2275   -1.5160   61.1562 H       1  ZINC000443933644    0.4200
     44 H44        -6.9621   -0.6967   63.2677 H       1  ZINC000443933644    0.0800
     45 H45        -8.1464    0.5800   63.6363 H       1  ZINC000443933644    0.1000
     46 H46        -8.3671   -1.0570   64.2993 H       1  ZINC000443933644    0.1000
     47 H47        -9.9959   -3.2976   61.0138 H       1  ZINC000443933644    0.1500
     48 H48       -11.3081   -3.9387   59.0385 H       1  ZINC000443933644    0.1500
@<TRIPOS>BOND
     1     1     2    1
     2     1    30    1
     3     1    31    1
     4     1    32    1
     5     2     3    1
     6     2    33    1
     7     2    34    1
     8     3     4    1
     9     3     5    1
    10     3     6    1
    11     5    35    1
    12     5    36    1
    13     5    37    1
    14     6     7    1
    15     6     8    1
    16     6    26    1
    17     8     9   am
    18     8    38    1
    19     9    10    2
    20     9    11    2
    21     9    12    1
    22    12    25   ar
    23    12    13   ar
    24    13    18   ar
    25    13    14   ar
    26    14    15   ar
    27    14    39    1
    28    15    16   ar
    29    15    40    1
    30    16    17   ar
    31    16    41    1
    32    17    18   ar
    33    17    42    1
    34    18    19   ar
    35    19    20    1
    36    19    24   ar
    37    20    21   am
    38    20    43    1
    39    21    22    1
    40    21    23    2
    41    22    44    1
    42    22    45    1
    43    22    46    1
    44    24    25   ar
    45    24    47    1
    46    25    48    1
    47    26    27    1
    48    26    28    1
    49    26    29    1
@<TRIPOS>SUBSTRUCTURE
     1 ZINC000443933644        1 TEMP              0 ****  ****    0 ROOT


##########                                Name:    ZINC000680410869
##########                DOCK_Rotatable_Bonds:                   6
##########                         Heavy_Atoms:                  24
##########                    Molecular_Weight:             335.354
##########                DOCK_Rotatable_Bonds:                   6
##########                       Formal_Charge:        -1.04308e-07
##########                     HBond_Acceptors:                   7
##########                        HBond_Donors:                   0
##########                         Heavy_Atoms:                  24
##########                          Grid_Score:          -28.238167
##########                     Grid_vdw_energy:          -27.289917
##########                      Grid_es_energy:           -0.948249
##########           Internal_energy_repulsive:           10.685334

@<TRIPOS>MOLECULE
ZINC000680410869
 43 45 1 0 0
SMALL
USER_CHARGES


@<TRIPOS>ATOM
      1 O1          0.6349    2.8948   49.5564 O.2     1  ZINC000680410869   -0.5200
      2 C2          0.9512    1.7486   49.8095 C.2     1  ZINC000680410869    0.6100
      3 C3          2.0843    1.4784   50.7177 C.2     1  ZINC000680410869    0.0100
      4 N4          3.2478    0.9552   50.3862 N.2     1  ZINC000680410869   -0.2500
      5 N5          4.0003    0.8610   51.4232 N.pl3   1  ZINC000680410869   -0.3500
      6 C6          5.3636    0.3247   51.4230 C.3     1  ZINC000680410869    0.5000
      7 F7          5.3158   -1.0708   51.5116 F       1  ZINC000680410869   -0.1600
      8 F8          6.0103    0.6949   50.2391 F       1  ZINC000680410869   -0.1700
      9 C9          3.3543    1.3281   52.5130 C.2     1  ZINC000680410869    0.0100
     10 C10         2.1293    1.7377   52.1081 C.2     1  ZINC000680410869   -0.1700
     11 N11         0.2644    0.7243   49.2657 N.am    1  ZINC000680410869   -0.6000
     12 C12         0.6247   -0.6714   49.5618 C.3     1  ZINC000680410869    0.0800
     13 C13         0.7587   -1.4280   48.2355 C.3     1  ZINC000680410869    0.0500
     14 O14        -0.4246   -1.2291   47.4583 O.3     1  ZINC000680410869   -0.3700
     15 C15        -0.6615    0.1320   47.0907 C.3     1  ZINC000680410869    0.0800
     16 H16         0.1968    0.5145   46.5381 H       1  ZINC000680410869    0.0600
     17 C17        -1.9122    0.2142   46.2133 C.3     1  ZINC000680410869   -0.1000
     18 C18        -1.7739    1.3835   45.2364 C.3     1  ZINC000680410869   -0.0800
     19 C19        -0.8503    0.9920   44.1117 C.ar    1  ZINC000680410869   -0.0800
     20 C20         0.4598    1.4330   44.1081 C.ar    1  ZINC000680410869   -0.1200
     21 C21         1.3070    1.0740   43.0765 C.ar    1  ZINC000680410869   -0.1200
     22 C22         0.8443    0.2735   42.0488 C.ar    1  ZINC000680410869   -0.1300
     23 C23        -0.4656   -0.1681   42.0530 C.ar    1  ZINC000680410869   -0.1200
     24 C24        -1.3116    0.1873   43.0867 C.ar    1  ZINC000680410869   -0.1200
     25 C25        -0.8717    0.9687   48.3630 C.3     1  ZINC000680410869    0.0600
     26 H26         5.9113    0.7242   52.2765 H       1  ZINC000680410869    0.1700
     27 H27         3.7439    1.3710   53.5194 H       1  ZINC000680410869    0.1900
     28 H28         1.3486    2.1666   52.7186 H       1  ZINC000680410869    0.1700
     29 H29         1.5732   -0.6997   50.0981 H       1  ZINC000680410869    0.1000
     30 H30        -0.1550   -1.1307   50.1695 H       1  ZINC000680410869    0.0800
     31 H31         1.6221   -1.0512   47.6870 H       1  ZINC000680410869    0.0600
     32 H32         0.8889   -2.4918   48.4346 H       1  ZINC000680410869    0.1100
     33 H33        -2.0256   -0.7147   45.6544 H       1  ZINC000680410869    0.0800
     34 H34        -2.7883    0.3685   46.8431 H       1  ZINC000680410869    0.0800
     35 H35        -2.7536    1.6359   44.8307 H       1  ZINC000680410869    0.0700
     36 H36        -1.3638    2.2474   45.7595 H       1  ZINC000680410869    0.0800
     37 H37         0.8214    2.0584   44.9110 H       1  ZINC000680410869    0.1200
     38 H38         2.3305    1.4190   43.0733 H       1  ZINC000680410869    0.1200
     39 H39         1.5060   -0.0064   41.2425 H       1  ZINC000680410869    0.1200
     40 H40        -0.8273   -0.7933   41.2499 H       1  ZINC000680410869    0.1200
     41 H41        -2.3350   -0.1577   43.0901 H       1  ZINC000680410869    0.1200
     42 H42        -1.8024    0.6729   48.8471 H       1  ZINC000680410869    0.0800
     43 H43        -0.9120    2.0267   48.1041 H       1  ZINC000680410869    0.1300
@<TRIPOS>BOND
     1     1     2    2
     2     2     3    1
     3     2    11   am
     4     3    10    1
     5     3     4    2
     6     4     5    1
     7     5     6    1
     8     5     9    1
     9     6     7    1
    10     6     8    1
    11     6    26    1
    12     9    10    2
    13     9    27    1
    14    10    28    1
    15    11    25    1
    16    11    12    1
    17    12    13    1
    18    12    29    1
    19    12    30    1
    20    13    14    1
    21    13    31    1
    22    13    32    1
    23    14    15    1
    24    15    16    1
    25    15    17    1
    26    15    25    1
    27    17    18    1
    28    17    33    1
    29    17    34    1
    30    18    19    1
    31    18    35    1
    32    18    36    1
    33    19    24   ar
    34    19    20   ar
    35    20    21   ar
    36    20    37    1
    37    21    22   ar
    38    21    38    1
    39    22    23   ar
    40    22    39    1
    41    23    24   ar
    42    23    40    1
    43    24    41    1
    44    25    42    1
    45    25    43    1
@<TRIPOS>SUBSTRUCTURE
     1 ZINC000680410869        1 TEMP              0 ****  ****    0 ROOT


##########                                Name:    ZINC001272744746
##########                DOCK_Rotatable_Bonds:                   6
##########                         Heavy_Atoms:                  25
##########                    Molecular_Weight:             348.417
##########                DOCK_Rotatable_Bonds:                   6
##########                       Formal_Charge:           0.0299999
##########                     HBond_Acceptors:                   6
##########                        HBond_Donors:                   1
##########                         Heavy_Atoms:                  25
##########                          Grid_Score:          -28.226145
##########                     Grid_vdw_energy:          -27.353165
##########                      Grid_es_energy:           -0.872981
##########           Internal_energy_repulsive:           71.192375

@<TRIPOS>MOLECULE
ZINC001272744746
 50 52 1 0 0
SMALL
USER_CHARGES


@<TRIPOS>ATOM
      1 C1         -5.8929    0.1155   51.7180 C.2     1  ZINC001272744746   -0.1700
      2 C2         -6.5891   -0.9941   51.7216 C.2     1  ZINC001272744746   -0.1700
      3 C3         -7.9288   -1.0454   51.0334 C.3     1  ZINC001272744746    0.1500
      4 N4         -8.9878   -0.7592   52.0044 N.am    1  ZINC001272744746   -0.6100
      5 C5         -8.7934    0.0109   53.2403 C.3     1  ZINC001272744746    0.0700
      6 C6        -10.2072    0.4048   53.7012 C.3     1  ZINC001272744746    0.1100
      7 C7        -11.0823   -0.6865   53.0580 C.3     1  ZINC001272744746   -0.1500
      8 C8        -10.2643   -1.1631   51.8762 C.2     1  ZINC001272744746    0.5200
      9 O9        -10.6956   -1.8199   50.9524 O.2     1  ZINC001272744746   -0.5200
     10 C10       -10.5830    1.7780   53.1620 C.3     1  ZINC001272744746   -0.1000
     11 C11        -9.6824    2.8393   53.8032 C.3     1  ZINC001272744746   -0.1200
     12 C12        -9.8101    2.7495   55.3265 C.3     1  ZINC001272744746   -0.1200
     13 C13        -9.4201    1.3434   55.7874 C.3     1  ZINC001272744746    0.0500
     14 N14       -10.3086    0.3569   55.1567 N.3     1  ZINC001272744746   -0.5100
     15 C15       -10.0345   -0.9959   55.6593 C.3     1  ZINC001272744746    0.0800
     16 C16       -11.2832   -1.5621   56.2847 C.ar    1  ZINC001272744746   -0.0200
     17 C17       -12.0687   -0.7667   57.0976 C.ar    1  ZINC001272744746   -0.1700
     18 C18       -13.2168   -1.2827   57.6744 C.ar    1  ZINC001272744746    0.1200
     19 F19       -13.9831   -0.5035   58.4687 F       1  ZINC001272744746   -0.1200
     20 C20       -13.5801   -2.5999   57.4358 C.ar    1  ZINC001272744746    0.0400
     21 O21       -14.7081   -3.1092   58.0008 O.3     1  ZINC001272744746   -0.4700
     22 C22       -12.7888   -3.3988   56.6170 C.ar    1  ZINC001272744746    0.1300
     23 O23       -13.1410   -4.6907   56.3797 O.3     1  ZINC001272744746   -0.3000
     24 C24       -14.3591   -5.1498   56.9694 C.3     1  ZINC001272744746    0.0200
     25 C25       -11.6435   -2.8742   56.0392 C.ar    1  ZINC001272744746   -0.1800
     26 H26        -6.2789    0.9937   51.2218 H       1  ZINC001272744746    0.1000
     27 H27        -4.9348    0.1535   52.2151 H       1  ZINC001272744746    0.1000
     28 H28        -6.2031   -1.8723   52.2179 H       1  ZINC001272744746    0.1100
     29 H29        -7.9564   -0.3026   50.2361 H       1  ZINC001272744746    0.0900
     30 H30        -8.0823   -2.0383   50.6104 H       1  ZINC001272744746    0.0800
     31 H31        -8.3075   -0.6053   53.9968 H       1  ZINC001272744746    0.0700
     32 H32        -8.1994    0.9027   53.0401 H       1  ZINC001272744746    0.0900
     33 H33       -11.2552   -1.5012   53.7612 H       1  ZINC001272744746    0.1100
     34 H34       -12.0292   -0.2662   52.7189 H       1  ZINC001272744746    0.1100
     35 H35       -10.4493    1.7929   52.0803 H       1  ZINC001272744746    0.0700
     36 H36       -11.6244    1.9908   53.4031 H       1  ZINC001272744746    0.0800
     37 H37        -8.6467    2.6622   53.5131 H       1  ZINC001272744746    0.0600
     38 H38        -9.9915    3.8298   53.4693 H       1  ZINC001272744746    0.0700
     39 H39        -9.1484    3.4807   55.7906 H       1  ZINC001272744746    0.0700
     40 H40       -10.8403    2.9547   55.6177 H       1  ZINC001272744746    0.0700
     41 H41        -8.3886    1.1397   55.4996 H       1  ZINC001272744746    0.0400
     42 H42        -9.5146    1.2769   56.8712 H       1  ZINC001272744746    0.0900
     43 H43        -9.7206   -1.6338   54.8330 H       1  ZINC001272744746    0.1000
     44 H44        -9.2417   -0.9524   56.4061 H       1  ZINC001272744746    0.0600
     45 H45       -11.7861    0.2589   57.2837 H       1  ZINC001272744746    0.1400
     46 H46       -14.9119   -4.0135   57.7258 H       1  ZINC001272744746    0.3900
     47 H47       -15.1901   -4.5475   56.6021 H       1  ZINC001272744746    0.0600
     48 H48       -14.5212   -6.1940   56.7020 H       1  ZINC001272744746    0.1100
     49 H49       -14.2951   -5.0580   58.0535 H       1  ZINC001272744746    0.0600
     50 H50       -11.0278   -3.4930   55.4032 H       1  ZINC001272744746    0.1400
@<TRIPOS>BOND
     1     1     2    2
     2     1    26    1
     3     1    27    1
     4     2     3    1
     5     2    28    1
     6     3     4    1
     7     3    29    1
     8     3    30    1
     9     4     8   am
    10     4     5    1
    11     5     6    1
    12     5    31    1
    13     5    32    1
    14     6    14    1
    15     6     7    1
    16     6    10    1
    17     7     8    1
    18     7    33    1
    19     7    34    1
    20     8     9    2
    21    10    11    1
    22    10    35    1
    23    10    36    1
    24    11    12    1
    25    11    37    1
    26    11    38    1
    27    12    13    1
    28    12    39    1
    29    12    40    1
    30    13    14    1
    31    13    41    1
    32    13    42    1
    33    14    15    1
    34    15    16    1
    35    15    43    1
    36    15    44    1
    37    16    25   ar
    38    16    17   ar
    39    17    18   ar
    40    17    45    1
    41    18    19    1
    42    18    20   ar
    43    20    21    1
    44    20    22   ar
    45    21    46    1
    46    22    23    1
    47    22    25   ar
    48    23    24    1
    49    24    47    1
    50    24    48    1
    51    24    49    1
    52    25    50    1
@<TRIPOS>SUBSTRUCTURE
     1 ZINC001272744746        1 TEMP              0 ****  ****    0 ROOT


##########                                Name:    ZINC000541568816
##########                DOCK_Rotatable_Bonds:                   8
##########                         Heavy_Atoms:                  25
##########                    Molecular_Weight:             411.339
##########                DOCK_Rotatable_Bonds:                   8
##########                       Formal_Charge:          -0.0100007
##########                     HBond_Acceptors:                   5
##########                        HBond_Donors:                   1
##########                         Heavy_Atoms:                  25
##########                          Grid_Score:          -28.222063
##########                     Grid_vdw_energy:          -27.750450
##########                      Grid_es_energy:           -0.471612
##########           Internal_energy_repulsive:           19.797123

@<TRIPOS>MOLECULE
ZINC000541568816
 52 54 1 0 0
SMALL
USER_CHARGES


@<TRIPOS>ATOM
      1 C1         -1.7863    1.2828   44.6732 C.3     1  ZINC000541568816   -0.1500
      2 C2         -2.4969    2.4277   45.3980 C.3     1  ZINC000541568816    0.0600
      3 O3         -1.5924    3.0442   46.3165 O.3     1  ZINC000541568816   -0.3700
      4 C4         -2.1111    3.1787   47.6412 C.3     1  ZINC000541568816    0.0700
      5 H5         -3.1475    2.8519   47.7255 H       1  ZINC000541568816    0.0900
      6 C6         -1.8457    4.5575   48.2710 C.3     1  ZINC000541568816   -0.1700
      7 C7         -1.5472    3.8152   49.5855 C.3     1  ZINC000541568816    0.1500
      8 H8         -0.6990    4.2233   50.1352 H       1  ZINC000541568816    0.1100
      9 N9         -2.7287    3.6148   50.4283 N.am    1  ZINC000541568816   -0.7200
     10 C10        -2.5888    3.4661   51.7605 C.2     1  ZINC000541568816    0.7100
     11 O11        -1.4821    3.4998   52.2630 O.2     1  ZINC000541568816   -0.5800
     12 N12        -3.6755    3.2801   52.5356 N.am    1  ZINC000541568816   -0.6300
     13 C13        -3.5233    3.1168   53.9835 C.3     1  ZINC000541568816    0.1000
     14 C14        -3.4235    4.4931   54.6443 C.3     1  ZINC000541568816   -0.1800
     15 C15        -5.0091    3.2414   51.9302 C.3     1  ZINC000541568816    0.1700
     16 C16        -5.6433    1.9007   52.1975 C.ar    1  ZINC000541568816   -0.0700
     17 C17        -5.1427    0.7657   51.5886 C.ar    1  ZINC000541568816   -0.1000
     18 C18        -5.7245   -0.4644   51.8338 C.ar    1  ZINC000541568816   -0.1000
     19 C19        -6.8067   -0.5595   52.6884 C.ar    1  ZINC000541568816   -0.1200
     20 C20        -7.3081    0.5754   53.2980 C.ar    1  ZINC000541568816   -0.0900
     21 C21        -6.7231    1.8053   53.0570 C.ar    1  ZINC000541568816   -0.0900
     22 Br22       -7.4085    3.3582   53.8907 Br      1  ZINC000541568816   -0.0500
     23 C23        -1.1940    2.5976   48.7220 C.3     1  ZINC000541568816    0.0800
     24 C24         0.2886    2.5051   48.3213 C.3     1  ZINC000541568816   -0.1200
     25 C25         0.7794    1.2988   49.1697 C.3     1  ZINC000541568816   -0.1600
     26 C26        -0.4920    0.4124   49.1875 C.3     1  ZINC000541568816    0.0500
     27 O27        -1.5933    1.3354   49.2525 O.3     1  ZINC000541568816   -0.3600
     28 H28        -0.9271    1.6751   44.1290 H       1  ZINC000541568816    0.0600
     29 H29        -1.4492    0.5454   45.4016 H       1  ZINC000541568816    0.0600
     30 H30        -2.4762    0.8125   43.9725 H       1  ZINC000541568816    0.0700
     31 H31        -2.8340    3.1652   44.6695 H       1  ZINC000541568816    0.0500
     32 H32        -3.3562    2.0355   45.9421 H       1  ZINC000541568816    0.0500
     33 H33        -0.9789    5.0689   47.8522 H       1  ZINC000541568816    0.1000
     34 H34        -2.7301    5.1927   48.3196 H       1  ZINC000541568816    0.0800
     35 H35        -3.6116    3.5891   50.0275 H       1  ZINC000541568816    0.4000
     36 H36        -4.3869    2.5843   54.3818 H       1  ZINC000541568816    0.0900
     37 H37        -2.6175    2.5473   54.1916 H       1  ZINC000541568816    0.0700
     38 H38        -4.3292    5.0627   54.4362 H       1  ZINC000541568816    0.0600
     39 H39        -3.3102    4.3716   55.7216 H       1  ZINC000541568816    0.0700
     40 H40        -2.5599    5.0257   54.2459 H       1  ZINC000541568816    0.0600
     41 H41        -5.6272    4.0284   52.3623 H       1  ZINC000541568816    0.1000
     42 H42        -4.9243    3.3952   50.8545 H       1  ZINC000541568816    0.1100
     43 H43        -4.2972    0.8395   50.9207 H       1  ZINC000541568816    0.1300
     44 H44        -5.3336   -1.3512   51.3571 H       1  ZINC000541568816    0.1300
     45 H45        -7.2609   -1.5205   52.8796 H       1  ZINC000541568816    0.1300
     46 H46        -8.1539    0.5011   53.9655 H       1  ZINC000541568816    0.1300
     47 H47         0.3916    2.2991   47.2560 H       1  ZINC000541568816    0.1000
     48 H48         0.8228    3.4154   48.5937 H       1  ZINC000541568816    0.0900
     49 H49         1.6083    0.7866   48.6812 H       1  ZINC000541568816    0.0900
     50 H50         1.0532    1.6127   50.1769 H       1  ZINC000541568816    0.0800
     51 H51        -0.5508   -0.1829   48.2763 H       1  ZINC000541568816    0.0600
     52 H52        -0.4892   -0.2355   50.0640 H       1  ZINC000541568816    0.0900
@<TRIPOS>BOND
     1     1     2    1
     2     1    28    1
     3     1    29    1
     4     1    30    1
     5     2     3    1
     6     2    31    1
     7     2    32    1
     8     3     4    1
     9     4     5    1
    10     4    23    1
    11     4     6    1
    12     6     7    1
    13     6    33    1
    14     6    34    1
    15     7     8    1
    16     7     9    1
    17     7    23    1
    18     9    10   am
    19     9    35    1
    20    10    11    2
    21    10    12   am
    22    12    13    1
    23    12    15    1
    24    13    14    1
    25    13    36    1
    26    13    37    1
    27    14    38    1
    28    14    39    1
    29    14    40    1
    30    15    16    1
    31    15    41    1
    32    15    42    1
    33    16    21   ar
    34    16    17   ar
    35    17    18   ar
    36    17    43    1
    37    18    19   ar
    38    18    44    1
    39    19    20   ar
    40    19    45    1
    41    20    21   ar
    42    20    46    1
    43    21    22    1
    44    23    27    1
    45    23    24    1
    46    24    25    1
    47    24    47    1
    48    24    48    1
    49    25    26    1
    50    25    49    1
    51    25    50    1
    52    26    27    1
    53    26    51    1
    54    26    52    1
@<TRIPOS>SUBSTRUCTURE
     1 ZINC000541568816        1 TEMP              0 ****  ****    0 ROOT


##########                                Name:    ZINC000459459628
##########                DOCK_Rotatable_Bonds:                   8
##########                         Heavy_Atoms:                  27
##########                    Molecular_Weight:             377.366
##########                DOCK_Rotatable_Bonds:                   8
##########                       Formal_Charge:         -0.00999984
##########                     HBond_Acceptors:                   8
##########                        HBond_Donors:                   1
##########                         Heavy_Atoms:                  27
##########                          Grid_Score:          -28.218012
##########                     Grid_vdw_energy:          -28.429718
##########                      Grid_es_energy:            0.211707
##########           Internal_energy_repulsive:           12.054183

@<TRIPOS>MOLECULE
ZINC000459459628
 45 46 1 0 0
SMALL
USER_CHARGES


@<TRIPOS>ATOM
      1 C1         -8.0341   -1.4136   59.7509 C.3     1  ZINC000459459628   -0.1600
      2 C2         -9.5556   -1.2620   59.6931 C.3     1  ZINC000459459628    0.1600
      3 H3         -9.8103   -0.2157   59.5241 H       1  ZINC000459459628    0.1100
      4 C4        -10.1651   -1.7278   61.0170 C.3     1  ZINC000459459628   -0.0900
      5 C5        -10.0064   -0.6440   62.0520 C.ar    1  ZINC000459459628   -0.0500
      6 C6        -11.0088    0.2903   62.2332 C.ar    1  ZINC000459459628   -0.1200
      7 C7        -10.8646    1.2853   63.1824 C.ar    1  ZINC000459459628   -0.0900
      8 C8         -9.7180    1.3467   63.9510 C.ar    1  ZINC000459459628   -0.1600
      9 C9         -8.7133    0.4109   63.7706 C.ar    1  ZINC000459459628    0.1000
     10 F10        -7.5917    0.4699   64.5215 F       1  ZINC000459459628   -0.1400
     11 C11        -8.8610   -0.5881   62.8236 C.ar    1  ZINC000459459628   -0.1500
     12 N12       -10.0863   -2.0770   58.5976 N.am    1  ZINC000459459628   -0.6200
     13 C13       -10.3710   -3.4979   58.8130 C.3     1  ZINC000459459628    0.0700
     14 C14       -10.3126   -1.5197   57.3916 C.2     1  ZINC000459459628    0.7100
     15 O15       -10.0777   -0.3402   57.2131 O.2     1  ZINC000459459628   -0.5700
     16 N16       -10.7994   -2.2699   56.3832 N.am    1  ZINC000459459628   -0.6800
     17 C17       -11.0347   -1.6902   55.1286 C.ar    1  ZINC000459459628    0.1500
     18 C18       -10.0686   -1.7602   54.1420 C.ar    1  ZINC000459459628   -0.0400
     19 C19       -10.3074   -1.1814   52.8926 C.ar    1  ZINC000459459628   -0.0300
     20 C20        -9.3105   -1.2513   51.8671 C.1     1  ZINC000459459628    0.2600
     21 N21        -8.5197   -1.3068   51.0534 N.1     1  ZINC000459459628   -0.4100
     22 C22       -11.5211   -0.5347   52.6463 C.ar    1  ZINC000459459628   -0.0500
     23 C23       -12.4802   -0.4678   53.6344 C.ar    1  ZINC000459459628   -0.1700
     24 C24       -12.2466   -1.0471   54.8733 C.ar    1  ZINC000459459628    0.1100
     25 O25       -13.1950   -0.9784   55.8432 O.3     1  ZINC000459459628   -0.3200
     26 C26       -14.4366   -1.6369   55.5844 C.3     1  ZINC000459459628    0.4100
     27 F27       -14.6103   -2.6809   56.4992 F       1  ZINC000459459628   -0.1900
     28 F28       -15.4862   -0.7214   55.7167 F       1  ZINC000459459628   -0.1900
     29 H29        -7.7794   -2.4599   59.9200 H       1  ZINC000459459628    0.0600
     30 H30        -7.6000   -1.0819   58.8078 H       1  ZINC000459459628    0.0600
     31 H31        -7.6393   -0.8072   60.5660 H       1  ZINC000459459628    0.0700
     32 H32       -11.2244   -1.9414   60.8740 H       1  ZINC000459459628    0.0800
     33 H33        -9.6548   -2.6300   61.3544 H       1  ZINC000459459628    0.0900
     34 H34       -11.9052    0.2432   61.6326 H       1  ZINC000459459628    0.1300
     35 H35       -11.6483    2.0149   63.3228 H       1  ZINC000459459628    0.1300
     36 H36        -9.6052    2.1244   64.6919 H       1  ZINC000459459628    0.1300
     37 H37        -8.0783   -1.3186   62.6824 H       1  ZINC000459459628    0.1300
     38 H38       -11.3993   -3.6145   59.1551 H       1  ZINC000459459628    0.0600
     39 H39       -10.2352   -4.0415   57.8780 H       1  ZINC000459459628    0.0700
     40 H40        -9.6903   -3.8947   59.5662 H       1  ZINC000459459628    0.0800
     41 H41       -10.9868   -3.2109   56.5255 H       1  ZINC000459459628    0.4100
     42 H42        -9.1314   -2.2607   54.3365 H       1  ZINC000459459628    0.1600
     43 H43       -11.7078   -0.0867   51.6815 H       1  ZINC000459459628    0.1400
     44 H44       -13.4175    0.0331   53.4423 H       1  ZINC000459459628    0.1500
     45 H45       -14.4304   -2.0387   54.5712 H       1  ZINC000459459628    0.1900
@<TRIPOS>BOND
     1     1     2    1
     2     1    29    1
     3     1    30    1
     4     1    31    1
     5     2     3    1
     6     2     4    1
     7     2    12    1
     8     4     5    1
     9     4    32    1
    10     4    33    1
    11     5    11   ar
    12     5     6   ar
    13     6     7   ar
    14     6    34    1
    15     7     8   ar
    16     7    35    1
    17     8     9   ar
    18     8    36    1
    19     9    10    1
    20     9    11   ar
    21    11    37    1
    22    12    13    1
    23    12    14   am
    24    13    38    1
    25    13    39    1
    26    13    40    1
    27    14    15    2
    28    14    16   am
    29    16    17    1
    30    16    41    1
    31    17    24   ar
    32    17    18   ar
    33    18    19   ar
    34    18    42    1
    35    19    20    1
    36    19    22   ar
    37    20    21    3
    38    22    23   ar
    39    22    43    1
    40    23    24   ar
    41    23    44    1
    42    24    25    1
    43    25    26    1
    44    26    27    1
    45    26    28    1
    46    26    45    1
@<TRIPOS>SUBSTRUCTURE
     1 ZINC000459459628        1 TEMP              0 ****  ****    0 ROOT


##########                                Name:    ZINC000065993627
##########                DOCK_Rotatable_Bonds:                   7
##########                         Heavy_Atoms:                  28
##########                    Molecular_Weight:             382.462
##########                DOCK_Rotatable_Bonds:                   7
##########                       Formal_Charge:          -0.0200002
##########                     HBond_Acceptors:                   7
##########                        HBond_Donors:                   2
##########                         Heavy_Atoms:                  28
##########                          Grid_Score:          -28.202271
##########                     Grid_vdw_energy:          -27.651031
##########                      Grid_es_energy:           -0.551240
##########           Internal_energy_repulsive:           12.443696

@<TRIPOS>MOLECULE
ZINC000065993627
 54 56 1 0 0
SMALL
USER_CHARGES


@<TRIPOS>ATOM
      1 C1         -8.7178   -1.6669   60.9705 C.3     1  ZINC000065993627   -0.1200
      2 C2         -9.7838   -0.8066   61.5985 C.ar    1  ZINC000065993627   -0.0700
      3 C3         -9.4271    0.2535   62.4077 C.ar    1  ZINC000065993627   -0.1800
      4 C4        -10.4098    1.0466   62.9866 C.ar    1  ZINC000065993627    0.2000
      5 N5        -10.0485    2.1213   63.8064 N.pl3   1  ZINC000065993627   -0.6400
      6 C6         -9.6409    3.3947   63.2076 C.3     1  ZINC000065993627    0.1000
      7 C7        -10.0781    1.9732   65.2636 C.3     1  ZINC000065993627    0.0900
      8 C8        -11.7505    0.7727   62.7512 C.ar    1  ZINC000065993627   -0.1800
      9 C9        -12.1068   -0.2878   61.9417 C.ar    1  ZINC000065993627   -0.0800
     10 C10       -11.1245   -1.0767   61.3587 C.ar    1  ZINC000065993627    0.1100
     11 N11       -11.4865   -2.1532   60.5366 N.am    1  ZINC000065993627   -0.6800
     12 C12       -12.1598   -1.9293   59.3907 C.2     1  ZINC000065993627    0.7000
     13 O13       -12.4533   -0.7937   59.0699 O.2     1  ZINC000065993627   -0.5700
     14 N14       -12.5077   -2.9641   58.6004 N.am    1  ZINC000065993627   -0.7400
     15 C15       -13.2380   -2.7206   57.3540 C.3     1  ZINC000065993627    0.2100
     16 H16       -14.0173   -1.9788   57.5284 H       1  ZINC000065993627    0.1000
     17 C17       -13.8748   -4.0258   56.8727 C.3     1  ZINC000065993627   -0.1600
     18 C18       -12.2844   -2.2102   56.3045 C.ar    1  ZINC000065993627   -0.1200
     19 C19       -12.7498   -1.4002   55.2849 C.ar    1  ZINC000065993627   -0.0800
     20 C20       -11.8784   -0.9309   54.3215 C.ar    1  ZINC000065993627   -0.1500
     21 C21       -10.5338   -1.2732   54.3777 C.ar    1  ZINC000065993627    0.1800
     22 N22        -9.6482   -0.7989   53.4033 N.am    1  ZINC000065993627   -0.5700
     23 C23        -8.3149   -0.2339   53.6615 C.3     1  ZINC000065993627    0.0600
     24 C24        -7.7879    0.1196   52.2574 C.3     1  ZINC000065993627    0.0400
     25 O25        -8.8682   -0.2789   51.3645 O.3     1  ZINC000065993627   -0.3200
     26 C26        -9.8744   -0.7906   52.0825 C.2     1  ZINC000065993627    0.6400
     27 O27       -10.9030   -1.2019   51.5833 O.2     1  ZINC000065993627   -0.5000
     28 C28       -10.0696   -2.0867   55.4029 C.ar    1  ZINC000065993627   -0.1500
     29 C29       -10.9451   -2.5482   56.3664 C.ar    1  ZINC000065993627   -0.0800
     30 H30        -8.4400   -1.2519   60.0016 H       1  ZINC000065993627    0.0700
     31 H31        -7.8424   -1.6923   61.6193 H       1  ZINC000065993627    0.0700
     32 H32        -9.1000   -2.6788   60.8362 H       1  ZINC000065993627    0.0600
     33 H33        -8.3843    0.4661   62.5910 H       1  ZINC000065993627    0.1200
     34 H34       -10.5167    4.0291   63.0717 H       1  ZINC000065993627    0.0500
     35 H35        -8.9291    3.8939   63.8650 H       1  ZINC000065993627    0.0700
     36 H36        -9.1735    3.2084   62.2407 H       1  ZINC000065993627    0.0700
     37 H37       -10.3170    0.9409   65.5192 H       1  ZINC000065993627    0.0800
     38 H38        -9.1029    2.2330   65.6750 H       1  ZINC000065993627    0.0500
     39 H39       -10.8366    2.6356   65.6808 H       1  ZINC000065993627    0.0500
     40 H40       -12.5147    1.3890   63.2015 H       1  ZINC000065993627    0.1300
     41 H41       -13.1497   -0.5009   61.7586 H       1  ZINC000065993627    0.1500
     42 H42       -11.2523   -3.0590   60.7925 H       1  ZINC000065993627    0.4000
     43 H43       -12.2747   -3.8700   58.8569 H       1  ZINC000065993627    0.4000
     44 H44       -14.5646   -4.3950   57.6317 H       1  ZINC000065993627    0.0700
     45 H45       -14.4182   -3.8447   55.9453 H       1  ZINC000065993627    0.0700
     46 H46       -13.0955   -4.7677   56.6983 H       1  ZINC000065993627    0.0600
     47 H47       -13.7958   -1.1347   55.2415 H       1  ZINC000065993627    0.1300
     48 H48       -12.2425   -0.2987   53.5252 H       1  ZINC000065993627    0.1600
     49 H49        -8.3912    0.6614   54.2784 H       1  ZINC000065993627    0.1000
     50 H50        -7.6711   -0.9739   54.1370 H       1  ZINC000065993627    0.1000
     51 H51        -7.6017    1.1906   52.1775 H       1  ZINC000065993627    0.1100
     52 H52        -6.8817   -0.4443   52.0361 H       1  ZINC000065993627    0.1100
     53 H53        -9.0245   -2.3549   55.4490 H       1  ZINC000065993627    0.1300
     54 H54       -10.5846   -3.1806   57.1641 H       1  ZINC000065993627    0.1300
@<TRIPOS>BOND
     1     1     2    1
     2     1    30    1
     3     1    31    1
     4     1    32    1
     5     2    10   ar
     6     2     3   ar
     7     3     4   ar
     8     3    33    1
     9     4     5    1
    10     4     8   ar
    11     5     6    1
    12     5     7    1
    13     6    34    1
    14     6    35    1
    15     6    36    1
    16     7    37    1
    17     7    38    1
    18     7    39    1
    19     8     9   ar
    20     8    40    1
    21     9    10   ar
    22     9    41    1
    23    10    11    1
    24    11    12   am
    25    11    42    1
    26    12    13    2
    27    12    14   am
    28    14    15    1
    29    14    43    1
    30    15    16    1
    31    15    17    1
    32    15    18    1
    33    17    44    1
    34    17    45    1
    35    17    46    1
    36    18    29   ar
    37    18    19   ar
    38    19    20   ar
    39    19    47    1
    40    20    21   ar
    41    20    48    1
    42    21    22    1
    43    21    28   ar
    44    22    26   am
    45    22    23    1
    46    23    24    1
    47    23    49    1
    48    23    50    1
    49    24    25    1
    50    24    51    1
    51    24    52    1
    52    25    26    1
    53    26    27    2
    54    28    29   ar
    55    28    53    1
    56    29    54    1
@<TRIPOS>SUBSTRUCTURE
     1 ZINC000065993627        1 TEMP              0 ****  ****    0 ROOT


##########                                Name:    ZINC000504638019
##########                DOCK_Rotatable_Bonds:                   8
##########                         Heavy_Atoms:                  24
##########                    Molecular_Weight:             328.454
##########                DOCK_Rotatable_Bonds:                   8
##########                       Formal_Charge:        -1.49012e-08
##########                     HBond_Acceptors:                   4
##########                        HBond_Donors:                   1
##########                         Heavy_Atoms:                  24
##########                          Grid_Score:          -28.201208
##########                     Grid_vdw_energy:          -27.839163
##########                      Grid_es_energy:           -0.362046
##########           Internal_energy_repulsive:           18.193460

@<TRIPOS>MOLECULE
ZINC000504638019
 52 53 1 0 0
SMALL
USER_CHARGES


@<TRIPOS>ATOM
      1 C1         -1.6561   -0.2835   45.5694 C.3     1  ZINC000504638019   -0.1200
      2 C2         -1.7166    0.4190   46.9013 C.ar    1  ZINC000504638019   -0.0900
      3 C3         -1.1387   -0.1606   48.0153 C.ar    1  ZINC000504638019   -0.1200
      4 C4         -1.1942    0.4838   49.2370 C.ar    1  ZINC000504638019   -0.1100
      5 C5         -1.8272    1.7080   49.3446 C.ar    1  ZINC000504638019   -0.0900
      6 C6         -1.8881    2.4103   50.6765 C.3     1  ZINC000504638019   -0.0600
      7 H7         -1.6397    1.7060   51.4703 H       1  ZINC000504638019    0.0900
      8 C8         -0.8869    3.5672   50.6893 C.3     1  ZINC000504638019   -0.1500
      9 C9         -3.2999    2.9552   50.9016 C.3     1  ZINC000504638019    0.1300
     10 N10        -4.0611    2.0136   51.7263 N.am    1  ZINC000504638019   -0.7000
     11 C11        -5.0698    1.3041   51.1825 C.2     1  ZINC000504638019    0.5100
     12 O12        -5.3465    1.4443   50.0093 O.2     1  ZINC000504638019   -0.5100
     13 C13        -5.8475    0.3449   52.0242 C.2     1  ZINC000504638019    0.5100
     14 O14        -5.6442   -0.8477   51.9302 O.2     1  ZINC000504638019   -0.5200
     15 N15        -6.7746    0.8044   52.8878 N.am    1  ZINC000504638019   -0.5800
     16 C16        -7.0200    2.2443   53.0014 C.3     1  ZINC000504638019    0.0600
     17 C17        -7.5369   -0.1359   53.7129 C.3     1  ZINC000504638019    0.1100
     18 C18        -9.0339    0.0851   53.4872 C.3     1  ZINC000504638019   -0.1000
     19 H19        -9.2615    1.1489   53.5548 H       1  ZINC000504638019    0.0800
     20 C20        -9.8321   -0.6799   54.5450 C.3     1  ZINC000504638019   -0.0800
     21 C21       -11.2889   -0.6921   54.1848 C.2     1  ZINC000504638019   -0.1500
     22 C22       -11.7462   -0.4235   53.0040 C.2     1  ZINC000504638019   -0.1600
     23 C23       -10.8844   -0.0526   51.8328 C.3     1  ZINC000504638019   -0.0900
     24 C24        -9.4294   -0.4396   52.1010 C.3     1  ZINC000504638019   -0.1100
     25 C25        -2.4039    2.2883   48.2302 C.ar    1  ZINC000504638019   -0.1100
     26 C26        -2.3450    1.6456   47.0077 C.ar    1  ZINC000504638019   -0.1200
     27 H27        -0.7535    0.0201   45.0391 H       1  ZINC000504638019    0.0700
     28 H28        -1.6389   -1.3619   45.7278 H       1  ZINC000504638019    0.0700
     29 H29        -2.5320   -0.0172   44.9780 H       1  ZINC000504638019    0.0700
     30 H30        -0.6442   -1.1170   47.9312 H       1  ZINC000504638019    0.1200
     31 H31        -0.7434    0.0306   50.1075 H       1  ZINC000504638019    0.1200
     32 H32        -0.9310    4.0752   51.6527 H       1  ZINC000504638019    0.0600
     33 H33         0.1189    3.1790   50.5290 H       1  ZINC000504638019    0.0600
     34 H34        -1.1353    4.2715   49.8955 H       1  ZINC000504638019    0.0600
     35 H35        -3.2412    3.9178   51.4095 H       1  ZINC000504638019    0.0800
     36 H36        -3.7982    3.0814   49.9403 H       1  ZINC000504638019    0.0800
     37 H37        -3.8391    1.9007   52.6638 H       1  ZINC000504638019    0.4100
     38 H38        -7.7177    2.5564   52.2243 H       1  ZINC000504638019    0.0600
     39 H39        -7.4447    2.4644   53.9808 H       1  ZINC000504638019    0.0700
     40 H40        -6.0800    2.7835   52.8834 H       1  ZINC000504638019    0.1100
     41 H41        -7.2747   -1.1571   53.4366 H       1  ZINC000504638019    0.0900
     42 H42        -7.2999    0.0283   54.7641 H       1  ZINC000504638019    0.0900
     43 H43        -9.4657   -1.7050   54.6028 H       1  ZINC000504638019    0.0800
     44 H44        -9.7035   -0.1973   55.5138 H       1  ZINC000504638019    0.0600
     45 H45       -11.9999   -0.9406   54.9588 H       1  ZINC000504638019    0.1000
     46 H46       -12.8145   -0.4694   52.8521 H       1  ZINC000504638019    0.1000
     47 H47       -11.2396   -0.5735   50.9435 H       1  ZINC000504638019    0.0700
     48 H48       -10.9436    1.0229   51.6668 H       1  ZINC000504638019    0.0700
     49 H49        -8.7865    0.0019   51.3395 H       1  ZINC000504638019    0.0700
     50 H50        -9.3298   -1.5249   52.0847 H       1  ZINC000504638019    0.0700
     51 H51        -2.8980    3.2449   48.3141 H       1  ZINC000504638019    0.1200
     52 H52        -2.7955    2.0990   46.1372 H       1  ZINC000504638019    0.1200
@<TRIPOS>BOND
     1     1     2    1
     2     1    27    1
     3     1    28    1
     4     1    29    1
     5     2    26   ar
     6     2     3   ar
     7     3     4   ar
     8     3    30    1
     9     4     5   ar
    10     4    31    1
    11     5     6    1
    12     5    25   ar
    13     6     7    1
    14     6     8    1
    15     6     9    1
    16     8    32    1
    17     8    33    1
    18     8    34    1
    19     9    10    1
    20     9    35    1
    21     9    36    1
    22    10    11   am
    23    10    37    1
    24    11    12    2
    25    11    13    1
    26    13    14    2
    27    13    15   am
    28    15    16    1
    29    15    17    1
    30    16    38    1
    31    16    39    1
    32    16    40    1
    33    17    18    1
    34    17    41    1
    35    17    42    1
    36    18    19    1
    37    18    24    1
    38    18    20    1
    39    20    21    1
    40    20    43    1
    41    20    44    1
    42    21    22    2
    43    21    45    1
    44    22    23    1
    45    22    46    1
    46    23    24    1
    47    23    47    1
    48    23    48    1
    49    24    49    1
    50    24    50    1
    51    25    26   ar
    52    25    51    1
    53    26    52    1
@<TRIPOS>SUBSTRUCTURE
     1 ZINC000504638019        1 TEMP              0 ****  ****    0 ROOT


##########                                Name:    ZINC000952280524
##########                DOCK_Rotatable_Bonds:                   9
##########                         Heavy_Atoms:                  25
##########                    Molecular_Weight:             348.486
##########                DOCK_Rotatable_Bonds:                   9
##########                       Formal_Charge:          -0.0100004
##########                     HBond_Acceptors:                   5
##########                        HBond_Donors:                   1
##########                         Heavy_Atoms:                  25
##########                          Grid_Score:          -28.174110
##########                     Grid_vdw_energy:          -27.048363
##########                      Grid_es_energy:           -1.125749
##########           Internal_energy_repulsive:           24.134481

@<TRIPOS>MOLECULE
ZINC000952280524
 57 59 1 0 0
SMALL
USER_CHARGES


@<TRIPOS>ATOM
      1 C1         -6.2453   -1.2781   51.7372 C.3     1  ZINC000952280524   -0.1800
      2 C2         -6.7312    0.1590   51.5384 C.3     1  ZINC000952280524    0.1400
      3 C3         -5.5288    1.1047   51.5104 C.3     1  ZINC000952280524   -0.1900
      4 O4         -7.4415    0.2550   50.3022 O.3     1  ZINC000952280524   -0.5500
      5 C5         -7.6590    0.5477   52.6912 C.3     1  ZINC000952280524   -0.1200
      6 C6         -8.7986   -0.4351   52.7721 C.2     1  ZINC000952280524    0.5300
      7 O7         -9.2293   -0.9488   51.7614 O.2     1  ZINC000952280524   -0.5100
      8 N8         -9.3390   -0.7433   53.9677 N.am    1  ZINC000952280524   -0.6300
      9 C9        -10.4492   -1.6812   54.1901 C.3     1  ZINC000952280524    0.1000
     10 C10       -10.7415   -1.6942   55.7053 C.3     1  ZINC000952280524   -0.1300
     11 C11       -10.1565   -0.3391   56.1837 C.3     1  ZINC000952280524   -0.1000
     12 H12       -10.8628    0.4734   56.0130 H       1  ZINC000952280524    0.0900
     13 C13        -9.7491   -0.4071   57.6569 C.3     1  ZINC000952280524   -0.0700
     14 C14        -8.9917    0.8675   58.0358 C.3     1  ZINC000952280524   -0.1300
     15 C15        -8.5553    0.7808   59.5017 C.3     1  ZINC000952280524    0.1100
     16 N16        -9.7374    0.5119   60.3319 N.am    1  ZINC000952280524   -0.6100
     17 C17       -10.0360    1.3060   61.3791 C.2     1  ZINC000952280524    0.5500
     18 O18       -11.0173    1.0730   62.0587 O.2     1  ZINC000952280524   -0.5500
     19 C19        -9.1749    2.4547   61.7002 C.2     1  ZINC000952280524   -0.2200
     20 C20        -8.2298    2.3382   62.6286 C.2     1  ZINC000952280524   -0.0300
     21 C21        -8.0422    1.0301   63.3529 C.3     1  ZINC000952280524   -0.1500
     22 C22        -7.3798    1.0746   64.7313 C.3     1  ZINC000952280524   -0.1700
     23 C23        -8.8790    0.7934   64.6119 C.3     1  ZINC000952280524   -0.1600
     24 C24       -10.5881   -0.6387   59.9983 C.3     1  ZINC000952280524    0.1000
     25 C25       -11.0016   -0.5360   58.5268 C.3     1  ZINC000952280524   -0.1300
     26 C26        -8.9107   -0.2005   55.2698 C.3     1  ZINC000952280524    0.1100
     27 H27        -5.6298   -1.3326   52.6352 H       1  ZINC000952280524    0.0700
     28 H28        -7.1042   -1.9405   51.8448 H       1  ZINC000952280524    0.0600
     29 H29        -5.6555   -1.5850   50.8734 H       1  ZINC000952280524    0.0600
     30 H30        -4.8678    0.8278   50.6892 H       1  ZINC000952280524    0.0600
     31 H31        -5.8750    2.1285   51.3689 H       1  ZINC000952280524    0.0800
     32 H32        -4.9870    1.0315   52.4534 H       1  ZINC000952280524    0.0600
     33 H33        -6.9019    0.0642   49.5227 H       1  ZINC000952280524    0.3700
     34 H34        -7.1007    0.5345   53.6272 H       1  ZINC000952280524    0.1000
     35 H35        -8.0542    1.5486   52.5179 H       1  ZINC000952280524    0.1000
     36 H36       -11.3318   -1.3466   53.6451 H       1  ZINC000952280524    0.0700
     37 H37       -10.1629   -2.6795   53.8592 H       1  ZINC000952280524    0.0700
     38 H38       -11.8147   -1.7379   55.8906 H       1  ZINC000952280524    0.0800
     39 H39       -10.2312   -2.5269   56.1894 H       1  ZINC000952280524    0.0800
     40 H40        -9.1058   -1.2725   57.8162 H       1  ZINC000952280524    0.0800
     41 H41        -8.1124    0.9708   57.4000 H       1  ZINC000952280524    0.0800
     42 H42        -9.6425    1.7313   57.9005 H       1  ZINC000952280524    0.0700
     43 H43        -7.8336   -0.0274   59.6210 H       1  ZINC000952280524    0.0700
     44 H44        -8.1030    1.7251   59.8049 H       1  ZINC000952280524    0.0900
     45 H45        -9.3102    3.3925   61.1820 H       1  ZINC000952280524    0.1300
     46 H46        -7.5967    3.1811   62.8633 H       1  ZINC000952280524    0.1300
     47 H47        -7.8305    0.1684   62.7200 H       1  ZINC000952280524    0.1200
     48 H48        -6.7320    0.2420   65.0055 H       1  ZINC000952280524    0.1000
     49 H49        -7.0796    2.0499   65.1143 H       1  ZINC000952280524    0.1000
     50 H50        -9.5652    1.5839   64.9161 H       1  ZINC000952280524    0.1000
     51 H51        -9.2174   -0.2241   64.8073 H       1  ZINC000952280524    0.1000
     52 H52       -10.0322   -1.5625   60.1580 H       1  ZINC000952280524    0.0700
     53 H53       -11.4770   -0.6309   60.6291 H       1  ZINC000952280524    0.0900
     54 H54       -11.6336    0.3410   58.3868 H       1  ZINC000952280524    0.0700
     55 H55       -11.5529   -1.4316   58.2406 H       1  ZINC000952280524    0.0800
     56 H56        -8.0788   -0.7783   55.6724 H       1  ZINC000952280524    0.0700
     57 H57        -8.6308    0.8478   55.1665 H       1  ZINC000952280524    0.0800
@<TRIPOS>BOND
     1     1     2    1
     2     1    27    1
     3     1    28    1
     4     1    29    1
     5     2     3    1
     6     2     4    1
     7     2     5    1
     8     3    30    1
     9     3    31    1
    10     3    32    1
    11     4    33    1
    12     5     6    1
    13     5    34    1
    14     5    35    1
    15     6     7    2
    16     6     8   am
    17     8    26    1
    18     8     9    1
    19     9    10    1
    20     9    36    1
    21     9    37    1
    22    10    11    1
    23    10    38    1
    24    10    39    1
    25    11    12    1
    26    11    13    1
    27    11    26    1
    28    13    25    1
    29    13    14    1
    30    13    40    1
    31    14    15    1
    32    14    41    1
    33    14    42    1
    34    15    16    1
    35    15    43    1
    36    15    44    1
    37    16    17   am
    38    16    24    1
    39    17    18    2
    40    17    19    1
    41    19    20    2
    42    19    45    1
    43    20    21    1
    44    20    46    1
    45    21    23    1
    46    21    22    1
    47    21    47    1
    48    22    23    1
    49    22    48    1
    50    22    49    1
    51    23    50    1
    52    23    51    1
    53    24    25    1
    54    24    52    1
    55    24    53    1
    56    25    54    1
    57    25    55    1
    58    26    56    1
    59    26    57    1
@<TRIPOS>SUBSTRUCTURE
     1 ZINC000952280524        1 TEMP              0 ****  ****    0 ROOT


##########                                Name:    ZINC000441887161
##########                DOCK_Rotatable_Bonds:                   6
##########                         Heavy_Atoms:                  27
##########                    Molecular_Weight:             383.514
##########                DOCK_Rotatable_Bonds:                   6
##########                       Formal_Charge:          -0.0300002
##########                     HBond_Acceptors:                   6
##########                        HBond_Donors:                   1
##########                         Heavy_Atoms:                  27
##########                          Grid_Score:          -28.163225
##########                     Grid_vdw_energy:          -27.678061
##########                      Grid_es_energy:           -0.485164
##########           Internal_energy_repulsive:           14.967101

@<TRIPOS>MOLECULE
ZINC000441887161
 52 54 1 0 0
SMALL
USER_CHARGES


@<TRIPOS>ATOM
      1 C1         -8.1934    0.1768   65.4978 C.3     1  ZINC000441887161   -0.1200
      2 C2         -8.5701    0.0263   64.0465 C.ar    1  ZINC000441887161   -0.0700
      3 C3         -7.7768   -0.7261   63.2010 C.ar    1  ZINC000441887161   -0.1200
      4 C4         -8.1224   -0.8642   61.8695 C.ar    1  ZINC000441887161   -0.0900
      5 C5         -9.2614   -0.2502   61.3839 C.ar    1  ZINC000441887161   -0.1100
      6 C6         -9.6379   -0.4003   59.9325 C.3     1  ZINC000441887161    0.1900
      7 H7        -10.7119   -0.2532   59.8185 H       1  ZINC000441887161    0.1000
      8 C8         -8.8893    0.6433   59.1009 C.3     1  ZINC000441887161    0.1000
      9 N9         -9.1312    0.3981   57.6769 N.pl3   1  ZINC000441887161   -0.4600
     10 C10        -8.1992    0.4427   56.6753 C.2     1  ZINC000441887161   -0.0500
     11 C11        -8.8452    0.1556   55.5290 C.2     1  ZINC000441887161   -0.0200
     12 N12       -10.1362   -0.0585   55.8228 N.2     1  ZINC000441887161   -0.4900
     13 C13       -10.3140    0.0801   57.1082 C.2     1  ZINC000441887161    0.1800
     14 N14        -9.2772   -1.7430   59.4708 N.am    1  ZINC000441887161   -1.1100
     15 S15       -10.2868   -3.0209   59.7710 S.o2    1  ZINC000441887161    2.6900
     16 O16        -9.7420   -4.1344   59.0764 O.2     1  ZINC000441887161   -0.9600
     17 O17       -10.5286   -3.0207   61.1712 O.2     1  ZINC000441887161   -0.9500
     18 C18       -11.8291   -2.6594   58.9996 C.ar    1  ZINC000441887161   -0.6800
     19 C19       -12.0195   -2.9549   57.6629 C.ar    1  ZINC000441887161   -0.0300
     20 C20       -13.2296   -2.6712   57.0577 C.ar    1  ZINC000441887161   -0.1300
     21 C21       -14.2495   -2.0926   57.7894 C.ar    1  ZINC000441887161   -0.0200
     22 C22       -15.5685   -1.7828   57.1296 C.3     1  ZINC000441887161   -0.1300
     23 C23       -14.0596   -1.7982   59.1269 C.ar    1  ZINC000441887161   -0.1000
     24 C24       -15.1717   -1.1677   59.9249 C.3     1  ZINC000441887161   -0.1200
     25 C25       -12.8511   -2.0853   59.7329 C.ar    1  ZINC000441887161   -0.0100
     26 C26       -10.0557    0.5014   62.2299 C.ar    1  ZINC000441887161   -0.0700
     27 C27       -11.2979    1.1706   61.7006 C.3     1  ZINC000441887161   -0.1300
     28 C28        -9.7122    0.6363   63.5619 C.ar    1  ZINC000441887161   -0.1200
     29 H29        -8.6483   -0.6271   66.0766 H       1  ZINC000441887161    0.0700
     30 H30        -7.1092    0.1285   65.5987 H       1  ZINC000441887161    0.0700
     31 H31        -8.5503    1.1379   65.8680 H       1  ZINC000441887161    0.0700
     32 H32        -6.8867   -1.2060   63.5805 H       1  ZINC000441887161    0.1200
     33 H33        -7.5021   -1.4516   61.2087 H       1  ZINC000441887161    0.1200
     34 H34        -9.2442    1.6399   59.3634 H       1  ZINC000441887161    0.1100
     35 H35        -7.8209    0.5725   59.3053 H       1  ZINC000441887161    0.1000
     36 H36        -7.1480    0.6657   56.7834 H       1  ZINC000441887161    0.1700
     37 H37        -8.4013    0.1063   54.5457 H       1  ZINC000441887161    0.1600
     38 H38       -11.2527   -0.0340   57.6297 H       1  ZINC000441887161    0.2000
     39 H39        -8.4470   -1.8835   58.9892 H       1  ZINC000441887161    0.4200
     40 H40       -11.2226   -3.4070   57.0911 H       1  ZINC000441887161    0.1300
     41 H41       -13.3780   -2.9014   56.0130 H       1  ZINC000441887161    0.1300
     42 H42       -16.2331   -2.6414   57.2255 H       1  ZINC000441887161    0.0800
     43 H43       -16.0217   -0.9168   57.6121 H       1  ZINC000441887161    0.0800
     44 H44       -15.4046   -1.5662   56.0740 H       1  ZINC000441887161    0.0700
     45 H45       -15.7863   -1.9491   60.3719 H       1  ZINC000441887161    0.0800
     46 H46       -14.7463   -0.5452   60.7120 H       1  ZINC000441887161    0.0700
     47 H47       -15.7869   -0.5528   59.2679 H       1  ZINC000441887161    0.0700
     48 H48       -12.7028   -1.8554   60.7777 H       1  ZINC000441887161    0.1400
     49 H49       -12.1464    0.4939   61.8020 H       1  ZINC000441887161    0.0800
     50 H50       -11.4898    2.0814   62.2677 H       1  ZINC000441887161    0.0700
     51 H51       -11.1561    1.4204   60.6491 H       1  ZINC000441887161    0.0600
     52 H52       -10.3328    1.2234   64.2227 H       1  ZINC000441887161    0.1300
@<TRIPOS>BOND
     1     1     2    1
     2     1    29    1
     3     1    30    1
     4     1    31    1
     5     2    28   ar
     6     2     3   ar
     7     3     4   ar
     8     3    32    1
     9     4     5   ar
    10     4    33    1
    11     5     6    1
    12     5    26   ar
    13     6     7    1
    14     6     8    1
    15     6    14    1
    16     8     9    1
    17     8    34    1
    18     8    35    1
    19     9    13    1
    20     9    10    1
    21    10    11    2
    22    10    36    1
    23    11    12    1
    24    11    37    1
    25    12    13    2
    26    13    38    1
    27    14    15   am
    28    14    39    1
    29    15    16    2
    30    15    17    2
    31    15    18    1
    32    18    25   ar
    33    18    19   ar
    34    19    20   ar
    35    19    40    1
    36    20    21   ar
    37    20    41    1
    38    21    22    1
    39    21    23   ar
    40    22    42    1
    41    22    43    1
    42    22    44    1
    43    23    24    1
    44    23    25   ar
    45    24    45    1
    46    24    46    1
    47    24    47    1
    48    25    48    1
    49    26    27    1
    50    26    28   ar
    51    27    49    1
    52    27    50    1
    53    27    51    1
    54    28    52    1
@<TRIPOS>SUBSTRUCTURE
     1 ZINC000441887161        1 TEMP              0 ****  ****    0 ROOT


##########                                Name:    ZINC001708427409
##########                DOCK_Rotatable_Bonds:                   6
##########                         Heavy_Atoms:                  24
##########                    Molecular_Weight:             334.505
##########                DOCK_Rotatable_Bonds:                   6
##########                       Formal_Charge:          -0.0200006
##########                     HBond_Acceptors:                   5
##########                        HBond_Donors:                   1
##########                         Heavy_Atoms:                  24
##########                          Grid_Score:          -28.156385
##########                     Grid_vdw_energy:          -28.141556
##########                      Grid_es_energy:           -0.014830
##########           Internal_energy_repulsive:           19.373251

@<TRIPOS>MOLECULE
ZINC001708427409
 58 60 1 0 0
SMALL
USER_CHARGES


@<TRIPOS>ATOM
      1 C1        -10.7103    0.1799   61.6582 C.3     1  ZINC001708427409   -0.1500
      2 C2         -9.8266    0.4037   60.4295 C.3     1  ZINC001708427409   -0.1200
      3 C3         -9.6143   -0.9269   59.7048 C.3     1  ZINC001708427409    0.0000
      4 H4        -10.4958   -1.5551   59.8328 H       1  ZINC001708427409    0.0800
      5 C5         -8.3923   -1.6373   60.2904 C.3     1  ZINC001708427409   -0.1400
      6 C6         -9.3901   -0.6693   58.2370 C.2     1  ZINC001708427409    0.1800
      7 N7         -8.3568   -0.0795   57.7054 N.2     1  ZINC001708427409   -0.2800
      8 N8         -8.4888   -0.0259   56.4281 N.2     1  ZINC001708427409   -0.3200
      9 C9         -9.6226   -0.5832   56.0733 C.2     1  ZINC001708427409    0.3600
     10 N10       -10.1081   -0.7127   54.7817 N.3     1  ZINC001708427409   -0.4200
     11 C11        -9.0947   -1.3436   53.8913 C.3     1  ZINC001708427409    0.0400
     12 C12        -9.5047   -0.9180   52.4643 C.3     1  ZINC001708427409   -0.0900
     13 H13       -10.0864   -1.7062   51.9865 H       1  ZINC001708427409    0.0900
     14 C14        -8.2643   -0.5934   51.6295 C.3     1  ZINC001708427409   -0.1500
     15 C15       -10.3748    0.3527   52.6580 C.3     1  ZINC001708427409   -0.0800
     16 H16        -9.9674    1.1965   52.1012 H       1  ZINC001708427409    0.0900
     17 C17       -11.7854    0.0094   52.1783 C.3     1  ZINC001708427409   -0.1100
     18 C18       -12.7622    1.0966   52.6254 C.3     1  ZINC001708427409   -0.1200
     19 C19       -12.8393    1.0804   54.1505 C.3     1  ZINC001708427409   -0.1100
     20 C20       -11.4798    1.3595   54.7583 C.3     1  ZINC001708427409   -0.1000
     21 C21       -10.3242    0.6123   54.1613 C.3     1  ZINC001708427409    0.1000
     22 H22        -9.4264    1.1974   54.3611 H       1  ZINC001708427409    0.0600
     23 N23       -10.2303   -1.0164   57.2156 N.pl3   1  ZINC001708427409   -0.4700
     24 C24       -11.5202   -1.7022   57.3257 C.3     1  ZINC001708427409    0.0800
     25 C25       -11.3329   -3.1914   57.0291 C.3     1  ZINC001708427409    0.1200
     26 C26       -10.4345   -3.8154   58.0991 C.3     1  ZINC001708427409   -0.1800
     27 C27       -12.6949   -3.8883   57.0371 C.3     1  ZINC001708427409   -0.1500
     28 O28       -10.7248   -3.3487   55.7456 O.3     1  ZINC001708427409   -0.5400
     29 H29       -10.2248   -0.5269   62.3311 H       1  ZINC001708427409    0.0600
     30 H30       -10.8615    1.1279   62.1746 H       1  ZINC001708427409    0.0600
     31 H31       -11.6741   -0.2207   61.3444 H       1  ZINC001708427409    0.0500
     32 H32       -10.3120    1.1105   59.7566 H       1  ZINC001708427409    0.0700
     33 H33        -8.8627    0.8043   60.7433 H       1  ZINC001708427409    0.0800
     34 H34        -8.5544   -1.8237   61.3520 H       1  ZINC001708427409    0.0700
     35 H35        -8.2411   -2.5853   59.7740 H       1  ZINC001708427409    0.0500
     36 H36        -7.5107   -1.0092   60.1622 H       1  ZINC001708427409    0.0700
     37 H37        -8.0978   -0.9709   54.1268 H       1  ZINC001708427409    0.0600
     38 H38        -9.1277   -2.4288   53.9878 H       1  ZINC001708427409    0.0800
     39 H39        -7.6393   -1.4825   51.5464 H       1  ZINC001708427409    0.0600
     40 H40        -8.5703   -0.2702   50.6345 H       1  ZINC001708427409    0.0600
     41 H41        -7.6995    0.2039   52.1127 H       1  ZINC001708427409    0.0600
     42 H42       -11.7918   -0.0584   51.0903 H       1  ZINC001708427409    0.0600
     43 H43       -12.0895   -0.9477   52.6020 H       1  ZINC001708427409    0.0700
     44 H44       -12.4069    2.0699   52.2870 H       1  ZINC001708427409    0.0600
     45 H45       -13.7486    0.8975   52.2066 H       1  ZINC001708427409    0.0600
     46 H46       -13.5443    1.8424   54.4825 H       1  ZINC001708427409    0.0600
     47 H47       -13.1867    0.1018   54.4821 H       1  ZINC001708427409    0.0600
     48 H48       -11.2728    2.4248   54.6567 H       1  ZINC001708427409    0.0600
     49 H49       -11.5270    1.1259   55.8219 H       1  ZINC001708427409    0.0700
     50 H50       -11.9120   -1.5792   58.3354 H       1  ZINC001708427409    0.0900
     51 H51       -12.2215   -1.2744   56.6092 H       1  ZINC001708427409    0.1000
     52 H52       -10.8984   -3.6955   59.0781 H       1  ZINC001708427409    0.0700
     53 H53       -10.3010   -4.8764   57.8877 H       1  ZINC001708427409    0.0700
     54 H54        -9.4642   -3.3190   58.0934 H       1  ZINC001708427409    0.0600
     55 H55       -13.3619   -3.3905   56.3331 H       1  ZINC001708427409    0.0700
     56 H56       -12.5713   -4.9312   56.7450 H       1  ZINC001708427409    0.0700
     57 H57       -13.1221   -3.8397   58.0387 H       1  ZINC001708427409    0.0700
     58 H58        -9.8605   -2.9225   55.6649 H       1  ZINC001708427409    0.3800
@<TRIPOS>BOND
     1     1     2    1
     2     1    29    1
     3     1    30    1
     4     1    31    1
     5     2     3    1
     6     2    32    1
     7     2    33    1
     8     3     4    1
     9     3     5    1
    10     3     6    1
    11     5    34    1
    12     5    35    1
    13     5    36    1
    14     6    23    1
    15     6     7    2
    16     7     8    1
    17     8     9    2
    18     9    10    1
    19     9    23    1
    20    10    21    1
    21    10    11    1
    22    11    12    1
    23    11    37    1
    24    11    38    1
    25    12    13    1
    26    12    14    1
    27    12    15    1
    28    14    39    1
    29    14    40    1
    30    14    41    1
    31    15    16    1
    32    15    21    1
    33    15    17    1
    34    17    18    1
    35    17    42    1
    36    17    43    1
    37    18    19    1
    38    18    44    1
    39    18    45    1
    40    19    20    1
    41    19    46    1
    42    19    47    1
    43    20    21    1
    44    20    48    1
    45    20    49    1
    46    21    22    1
    47    23    24    1
    48    24    25    1
    49    24    50    1
    50    24    51    1
    51    25    26    1
    52    25    27    1
    53    25    28    1
    54    26    52    1
    55    26    53    1
    56    26    54    1
    57    27    55    1
    58    27    56    1
    59    27    57    1
    60    28    58    1
@<TRIPOS>SUBSTRUCTURE
     1 ZINC001708427409        1 TEMP              0 ****  ****    0 ROOT


##########                                Name:    ZINC001199210165
##########                DOCK_Rotatable_Bonds:                   5
##########                         Heavy_Atoms:                  23
##########                    Molecular_Weight:             375.225
##########                DOCK_Rotatable_Bonds:                   5
##########                       Formal_Charge:         -0.00999999
##########                     HBond_Acceptors:                   6
##########                        HBond_Donors:                   2
##########                         Heavy_Atoms:                  23
##########                          Grid_Score:          -28.156288
##########                     Grid_vdw_energy:          -26.458759
##########                      Grid_es_energy:           -1.697528
##########           Internal_energy_repulsive:            7.805485

@<TRIPOS>MOLECULE
ZINC001199210165
 38 40 1 0 0
SMALL
USER_CHARGES


@<TRIPOS>ATOM
      1 C1        -10.4079   -0.7849   52.4800 C.3     1  ZINC001199210165   -0.1700
      2 C2         -9.0220   -1.0289   53.0804 C.3     1  ZINC001199210165    0.0800
      3 C3         -7.9523   -0.4806   52.1339 C.3     1  ZINC001199210165   -0.1500
      4 O4         -8.9262   -0.3657   54.3427 O.3     1  ZINC001199210165   -0.3000
      5 C5         -9.3313   -1.0601   55.4357 C.ar    1  ZINC001199210165    0.3300
      6 C6         -9.1136   -0.5346   56.7022 C.ar    1  ZINC001199210165   -0.1300
      7 C7         -9.5361   -1.2611   57.8172 C.ar    1  ZINC001199210165   -0.0600
      8 C8         -9.3262   -0.7409   59.1881 C.2     1  ZINC001199210165    0.5700
      9 O9         -8.4375    0.0591   59.4050 O.2     1  ZINC001199210165   -0.4900
     10 N10       -10.1207   -1.1549   60.1950 N.am    1  ZINC001199210165   -0.6600
     11 C11        -9.9226   -0.6639   61.4889 C.ar    1  ZINC001199210165    0.2000
     12 C12       -10.9453    0.0403   62.1265 C.ar    1  ZINC001199210165   -0.1500
     13 C13       -10.7703    0.5260   63.3882 C.ar    1  ZINC001199210165   -0.0200
     14 C14        -9.5563    0.3188   64.0530 C.ar    1  ZINC001199210165   -0.1700
     15 C15        -9.0475    0.6916   65.3698 C.2     1  ZINC001199210165    0.0900
     16 Br16       -9.9859    1.6637   66.6928 Br      1  ZINC001199210165    0.0600
     17 N17        -7.8316    0.2346   65.4708 N.2     1  ZINC001199210165   -0.2100
     18 N18        -7.4705   -0.4342   64.2966 N.pl3   1  ZINC001199210165   -0.4900
     19 C19        -8.5199   -0.3911   63.4155 C.ar    1  ZINC001199210165    0.1500
     20 C20        -8.7171   -0.8846   62.1295 C.ar    1  ZINC001199210165   -0.1700
     21 C21       -10.1636   -2.4938   57.6047 C.ar    1  ZINC001199210165   -0.1900
     22 C22       -10.3409   -2.9434   56.3120 C.ar    1  ZINC001199210165    0.1400
     23 N23        -9.9334   -2.2271   55.2823 N.ar    1  ZINC001199210165   -0.5200
     24 H24       -10.5602    0.2855   52.3406 H       1  ZINC001199210165    0.0600
     25 H25       -10.4810   -1.2907   51.5173 H       1  ZINC001199210165    0.0700
     26 H26       -11.1700   -1.1754   53.1543 H       1  ZINC001199210165    0.0600
     27 H27        -8.8697   -2.0991   53.2199 H       1  ZINC001199210165    0.0900
     28 H28        -8.1046    0.5897   51.9944 H       1  ZINC001199210165    0.0700
     29 H29        -6.9649   -0.6545   52.5617 H       1  ZINC001199210165    0.0600
     30 H30        -8.0254   -0.9864   51.1711 H       1  ZINC001199210165    0.0800
     31 H31        -8.6249    0.4210   56.8230 H       1  ZINC001199210165    0.1600
     32 H32       -10.8301   -1.7935   60.0219 H       1  ZINC001199210165    0.4100
     33 H33       -11.8831    0.2020   61.6158 H       1  ZINC001199210165    0.1500
     34 H34       -11.5669    1.0701   63.8739 H       1  ZINC001199210165    0.1400
     35 H35        -6.6148   -0.8603   64.1323 H       1  ZINC001199210165    0.4500
     36 H36        -7.9314   -1.4346   61.6330 H       1  ZINC001199210165    0.1400
     37 H37       -10.5044   -3.0856   58.4413 H       1  ZINC001199210165    0.1400
     38 H38       -10.8241   -3.8940   56.1409 H       1  ZINC001199210165    0.1700
@<TRIPOS>BOND
     1     1     2    1
     2     1    24    1
     3     1    25    1
     4     1    26    1
     5     2     3    1
     6     2     4    1
     7     2    27    1
     8     3    28    1
     9     3    29    1
    10     3    30    1
    11     4     5    1
    12     5    23   ar
    13     5     6   ar
    14     6     7   ar
    15     6    31    1
    16     7     8    1
    17     7    21   ar
    18     8     9    2
    19     8    10   am
    20    10    11    1
    21    10    32    1
    22    11    20   ar
    23    11    12   ar
    24    12    13   ar
    25    12    33    1
    26    13    14   ar
    27    13    34    1
    28    14    19   ar
    29    14    15    1
    30    15    16    1
    31    15    17    2
    32    17    18    1
    33    18    19    1
    34    18    35    1
    35    19    20   ar
    36    20    36    1
    37    21    22   ar
    38    21    37    1
    39    22    23   ar
    40    22    38    1
@<TRIPOS>SUBSTRUCTURE
     1 ZINC001199210165        1 TEMP              0 ****  ****    0 ROOT


##########                                Name:    ZINC001220212140
##########                DOCK_Rotatable_Bonds:                   6
##########                         Heavy_Atoms:                  28
##########                    Molecular_Weight:             379.459
##########                DOCK_Rotatable_Bonds:                   6
##########                       Formal_Charge:         -0.00999925
##########                     HBond_Acceptors:                   6
##########                        HBond_Donors:                   1
##########                         Heavy_Atoms:                  28
##########                          Grid_Score:          -28.143782
##########                     Grid_vdw_energy:          -27.763857
##########                      Grid_es_energy:           -0.379924
##########           Internal_energy_repulsive:           13.783269

@<TRIPOS>MOLECULE
ZINC001220212140
 53 56 1 0 0
SMALL
USER_CHARGES


@<TRIPOS>ATOM
      1 C1         -1.3652    0.7695   44.1986 C.3     1  ZINC001220212140   -0.1700
      2 C2         -1.0606    2.0898   44.9093 C.3     1  ZINC001220212140    0.0800
      3 H3         -0.5965    2.7979   44.2228 H       1  ZINC001220212140    0.1200
      4 C4         -2.3460    2.6885   45.5278 C.3     1  ZINC001220212140   -0.1100
      5 C5         -2.3037    2.1328   46.9383 C.ar    1  ZINC001220212140   -0.1500
      6 C6         -3.2604    2.0428   47.9239 C.ar    1  ZINC001220212140   -0.0700
      7 C7         -2.9426    1.4670   49.1480 C.ar    1  ZINC001220212140    0.1400
      8 N8         -3.9125    1.3721   50.1551 N.am    1  ZINC001220212140   -0.6800
      9 C9         -3.9259    2.2654   51.1642 C.2     1  ZINC001220212140    0.7200
     10 O10        -3.0965    3.1537   51.2007 O.2     1  ZINC001220212140   -0.5700
     11 N11        -4.8587    2.1741   52.1327 N.am    1  ZINC001220212140   -0.6300
     12 C12        -4.9879    3.0773   53.2857 C.3     1  ZINC001220212140    0.0900
     13 C13        -6.2072    2.6036   54.1044 C.3     1  ZINC001220212140   -0.1100
     14 C14        -7.0359    1.8053   53.0635 C.3     1  ZINC001220212140   -0.1300
     15 H15        -7.6498    2.4723   52.4583 H       1  ZINC001220212140    0.1200
     16 C16        -7.8842    0.7576   53.7371 C.2     1  ZINC001220212140    0.5300
     17 O17        -7.3581   -0.1367   54.3652 O.2     1  ZINC001220212140   -0.5100
     18 N18        -9.2273    0.8144   53.6415 N.am    1  ZINC001220212140   -0.5700
     19 C19       -10.0520   -0.2041   54.2963 C.3     1  ZINC001220212140    0.0700
     20 C20        -9.8341    1.8461   52.9168 C.ar    1  ZINC001220212140    0.1400
     21 C21        -9.7310    3.1593   53.3567 C.ar    1  ZINC001220212140   -0.1100
     22 C22       -10.3311    4.1755   52.6391 C.ar    1  ZINC001220212140   -0.1100
     23 C23       -11.0342    3.8864   51.4841 C.ar    1  ZINC001220212140   -0.1200
     24 C24       -11.1390    2.5798   51.0437 C.ar    1  ZINC001220212140   -0.1100
     25 C25       -10.5358    1.5598   51.7531 C.ar    1  ZINC001220212140   -0.1200
     26 C26        -5.9222    1.1561   52.2083 C.3     1  ZINC001220212140    0.1400
     27 C27        -1.6591    0.9859   49.3672 C.ar    1  ZINC001220212140   -0.1100
     28 C28        -0.7025    1.0812   48.3784 C.ar    1  ZINC001220212140   -0.1200
     29 C29        -1.0147    1.6605   47.1513 C.ar    1  ZINC001220212140    0.0900
     30 O30        -0.2231    1.8692   46.0567 O.3     1  ZINC001220212140   -0.3000
     31 H31        -1.8168    0.0726   44.9047 H       1  ZINC001220212140    0.0600
     32 H32        -2.0559    0.9510   43.3752 H       1  ZINC001220212140    0.0800
     33 H33        -0.4400    0.3443   43.8098 H       1  ZINC001220212140    0.0700
     34 H34        -2.3032    3.7776   45.5367 H       1  ZINC001220212140    0.0900
     35 H35        -3.2324    2.3393   44.9981 H       1  ZINC001220212140    0.0900
     36 H36        -4.2570    2.4190   47.7459 H       1  ZINC001220212140    0.1400
     37 H37        -4.5743    0.6634   50.1260 H       1  ZINC001220212140    0.4100
     38 H38        -4.0878    3.0273   53.8985 H       1  ZINC001220212140    0.0700
     39 H39        -5.1475    4.0988   52.9403 H       1  ZINC001220212140    0.0700
     40 H40        -5.8937    1.9580   54.9248 H       1  ZINC001220212140    0.1000
     41 H41        -6.7753    3.4554   54.4782 H       1  ZINC001220212140    0.0900
     42 H42       -10.2927    0.1193   55.3090 H       1  ZINC001220212140    0.0700
     43 H43       -10.9734   -0.3441   53.7311 H       1  ZINC001220212140    0.0800
     44 H44        -9.5036   -1.1452   54.3362 H       1  ZINC001220212140    0.0800
     45 H45        -9.1826    3.3857   54.2591 H       1  ZINC001220212140    0.1200
     46 H46       -10.2513    5.1970   52.9808 H       1  ZINC001220212140    0.1300
     47 H47       -11.5028    4.6827   50.9250 H       1  ZINC001220212140    0.1300
     48 H48       -11.6895    2.3572   50.1416 H       1  ZINC001220212140    0.1300
     49 H49       -10.6179    0.5396   51.4086 H       1  ZINC001220212140    0.1200
     50 H50        -6.2976    0.9201   51.2125 H       1  ZINC001220212140    0.0900
     51 H51        -5.5454    0.2568   52.6954 H       1  ZINC001220212140    0.0700
     52 H52        -1.4086    0.5355   50.3163 H       1  ZINC001220212140    0.1300
     53 H53         0.2940    0.7045   48.5567 H       1  ZINC001220212140    0.1300
@<TRIPOS>BOND
     1     1     2    1
     2     1    31    1
     3     1    32    1
     4     1    33    1
     5     2     3    1
     6     2    30    1
     7     2     4    1
     8     4     5    1
     9     4    34    1
    10     4    35    1
    11     5    29   ar
    12     5     6   ar
    13     6     7   ar
    14     6    36    1
    15     7     8    1
    16     7    27   ar
    17     8     9   am
    18     8    37    1
    19     9    10    2
    20     9    11   am
    21    11    26    1
    22    11    12    1
    23    12    13    1
    24    12    38    1
    25    12    39    1
    26    13    14    1
    27    13    40    1
    28    13    41    1
    29    14    15    1
    30    14    16    1
    31    14    26    1
    32    16    17    2
    33    16    18   am
    34    18    19    1
    35    18    20    1
    36    19    42    1
    37    19    43    1
    38    19    44    1
    39    20    25   ar
    40    20    21   ar
    41    21    22   ar
    42    21    45    1
    43    22    23   ar
    44    22    46    1
    45    23    24   ar
    46    23    47    1
    47    24    25   ar
    48    24    48    1
    49    25    49    1
    50    26    50    1
    51    26    51    1
    52    27    28   ar
    53    27    52    1
    54    28    29   ar
    55    28    53    1
    56    29    30    1
@<TRIPOS>SUBSTRUCTURE
     1 ZINC001220212140        1 TEMP              0 ****  ****    0 ROOT


##########                                Name:    ZINC000375477402
##########                DOCK_Rotatable_Bonds:                   5
##########                         Heavy_Atoms:                  26
##########                    Molecular_Weight:             378.342
##########                DOCK_Rotatable_Bonds:                   5
##########                       Formal_Charge:         -1.2666e-07
##########                     HBond_Acceptors:                   9
##########                        HBond_Donors:                   1
##########                         Heavy_Atoms:                  26
##########                          Grid_Score:          -28.138565
##########                     Grid_vdw_energy:          -27.175802
##########                      Grid_es_energy:           -0.962762
##########           Internal_energy_repulsive:            9.213276

@<TRIPOS>MOLECULE
ZINC000375477402
 45 47 1 0 0
SMALL
USER_CHARGES


@<TRIPOS>ATOM
      1 O1         -4.1685    2.3777   49.6001 O.2     1  ZINC000375477402   -0.5600
      2 C2         -2.9783    2.3600   49.8484 C.2     1  ZINC000375477402    0.7200
      3 N3         -2.5201    2.9080   50.9912 N.am    1  ZINC000375477402   -0.7300
      4 C4         -3.4554    3.5304   51.9316 C.3     1  ZINC000375477402    0.1800
      5 H5         -4.4297    3.0490   51.8473 H       1  ZINC000375477402    0.1500
      6 C6         -2.9358    3.3700   53.3371 C.ar    1  ZINC000375477402   -0.1300
      7 C7         -1.5775    3.2484   53.5620 C.ar    1  ZINC000375477402   -0.0800
      8 C8         -1.0992    3.1013   54.8508 C.ar    1  ZINC000375477402   -0.0900
      9 C9         -1.9783    3.0753   55.9170 C.ar    1  ZINC000375477402   -0.1100
     10 C10        -3.3390    3.1968   55.6951 C.ar    1  ZINC000375477402    0.0800
     11 F11        -4.1990    3.1717   56.7368 F       1  ZINC000375477402   -0.1200
     12 C12        -3.8183    3.3502   54.4031 C.ar    1  ZINC000375477402    0.1000
     13 F13        -5.1461    3.4690   54.1840 F       1  ZINC000375477402   -0.1100
     14 C14        -3.5921    5.0188   51.6051 C.3     1  ZINC000375477402    0.4400
     15 F15        -4.0744    5.1677   50.3004 F       1  ZINC000375477402   -0.1600
     16 F16        -4.4851    5.6131   52.5031 F       1  ZINC000375477402   -0.1700
     17 F17        -2.3415    5.6367   51.7133 F       1  ZINC000375477402   -0.1800
     18 N18        -2.1180    1.7875   48.9832 N.am    1  ZINC000375477402   -0.6300
     19 C19        -0.6569    1.6918   49.1601 C.3     1  ZINC000375477402    0.1000
     20 C20        -0.2290    0.4794   48.2937 C.3     1  ZINC000375477402   -0.1200
     21 C21        -1.1835    0.6108   47.0860 C.3     1  ZINC000375477402   -0.1100
     22 C22        -2.4812    1.1483   47.7081 C.3     1  ZINC000375477402    0.1400
     23 C23        -0.6163    1.5966   46.0721 C.3     1  ZINC000375477402   -0.1100
     24 C24        -1.5485    1.6596   44.8564 C.3     1  ZINC000375477402   -0.1600
     25 C25        -1.7293    0.2482   44.2913 C.3     1  ZINC000375477402    0.0600
     26 O26        -2.2637   -0.6066   45.3044 O.3     1  ZINC000375477402   -0.3800
     27 C27        -1.4183   -0.7521   46.4490 C.3     1  ZINC000375477402    0.0800
     28 H28        -1.5711    2.8903   51.1912 H       1  ZINC000375477402    0.4000
     29 H29        -0.8891    3.2682   52.7301 H       1  ZINC000375477402    0.1400
     30 H30        -0.0375    3.0061   55.0247 H       1  ZINC000375477402    0.1500
     31 H31        -1.6035    2.9600   56.9233 H       1  ZINC000375477402    0.1500
     32 H32        -0.1717    2.6012   48.8055 H       1  ZINC000375477402    0.0700
     33 H33        -0.4126    1.5144   50.2074 H       1  ZINC000375477402    0.0700
     34 H34         0.8114    0.5700   47.9814 H       1  ZINC000375477402    0.0900
     35 H35        -0.3961   -0.4582   48.8238 H       1  ZINC000375477402    0.0800
     36 H36        -3.1769    0.3274   47.8826 H       1  ZINC000375477402    0.0800
     37 H37        -2.9328    1.8862   47.0451 H       1  ZINC000375477402    0.0700
     38 H38        -0.5428    2.5847   46.5264 H       1  ZINC000375477402    0.0700
     39 H39         0.3728    1.2653   45.7559 H       1  ZINC000375477402    0.0700
     40 H40        -2.5168    2.0576   45.1598 H       1  ZINC000375477402    0.0700
     41 H41        -1.1105    2.3041   44.0943 H       1  ZINC000375477402    0.0800
     42 H42        -2.4150    0.2810   43.4447 H       1  ZINC000375477402    0.1000
     43 H43        -0.7644   -0.1377   43.9624 H       1  ZINC000375477402    0.0500
     44 H44        -0.4633   -1.1791   46.1431 H       1  ZINC000375477402    0.0600
     45 H45        -1.8964   -1.4131   47.1718 H       1  ZINC000375477402    0.1000
@<TRIPOS>BOND
     1     1     2    2
     2     2     3   am
     3     2    18   am
     4     3     4    1
     5     3    28    1
     6     4     5    1
     7     4     6    1
     8     4    14    1
     9     6    12   ar
    10     6     7   ar
    11     7     8   ar
    12     7    29    1
    13     8     9   ar
    14     8    30    1
    15     9    10   ar
    16     9    31    1
    17    10    11    1
    18    10    12   ar
    19    12    13    1
    20    14    15    1
    21    14    16    1
    22    14    17    1
    23    18    22    1
    24    18    19    1
    25    19    20    1
    26    19    32    1
    27    19    33    1
    28    20    21    1
    29    20    34    1
    30    20    35    1
    31    21    27    1
    32    21    22    1
    33    21    23    1
    34    22    36    1
    35    22    37    1
    36    23    24    1
    37    23    38    1
    38    23    39    1
    39    24    25    1
    40    24    40    1
    41    24    41    1
    42    25    26    1
    43    25    42    1
    44    25    43    1
    45    26    27    1
    46    27    44    1
    47    27    45    1
@<TRIPOS>SUBSTRUCTURE
     1 ZINC000375477402        1 TEMP              0 ****  ****    0 ROOT


##########                                Name:    ZINC000566738344
##########                DOCK_Rotatable_Bonds:                   5
##########                         Heavy_Atoms:                  23
##########                    Molecular_Weight:             352.478
##########                DOCK_Rotatable_Bonds:                   5
##########                       Formal_Charge:           0.0100005
##########                     HBond_Acceptors:                   7
##########                        HBond_Donors:                   0
##########                         Heavy_Atoms:                  23
##########                          Grid_Score:          -28.129274
##########                     Grid_vdw_energy:          -26.901302
##########                      Grid_es_energy:           -1.227973
##########           Internal_energy_repulsive:           27.687183

@<TRIPOS>MOLECULE
ZINC000566738344
 43 44 1 0 0
SMALL
USER_CHARGES


@<TRIPOS>ATOM
      1 C1        -15.0626   -2.6706   59.3429 C.3     1  ZINC000566738344   -0.1300
      2 C2        -13.6404   -2.2263   59.5687 C.ar    1  ZINC000566738344   -0.0100
      3 C3        -12.7246   -2.3014   58.5445 C.ar    1  ZINC000566738344   -0.1000
      4 C4        -11.4100   -1.8914   58.7525 C.ar    1  ZINC000566738344   -0.0500
      5 S5        -10.2401   -1.9898   57.4386 S.3     1  ZINC000566738344   -0.0300
      6 C6        -10.4046   -0.3772   56.6241 C.3     1  ZINC000566738344   -0.1200
      7 H7        -11.4509   -0.2011   56.3746 H       1  ZINC000566738344    0.1200
      8 C8         -9.9130    0.7229   57.5670 C.3     1  ZINC000566738344   -0.1300
      9 C9         -9.5786   -0.3646   55.3636 C.2     1  ZINC000566738344    0.5200
     10 O10        -8.7730   -1.2474   55.1577 O.2     1  ZINC000566738344   -0.5000
     11 N11        -9.7353    0.6278   54.4652 N.am    1  ZINC000566738344   -0.6000
     12 C12       -10.7071    1.6951   54.7149 C.3     1  ZINC000566738344    0.0600
     13 C13        -8.9337    0.6392   53.2391 C.3     1  ZINC000566738344    0.1500
     14 H14        -9.2266    1.4855   52.6177 H       1  ZINC000566738344    0.1300
     15 C15        -7.4415    0.7525   53.5976 C.3     1  ZINC000566738344   -0.1300
     16 C16        -6.6490    0.4268   52.3053 C.3     1  ZINC000566738344   -0.5900
     17 S17        -7.5642   -1.0093   51.6275 S.o2    1  ZINC000566738344    2.4000
     18 O18        -7.7234   -0.8468   50.2249 O.2     1  ZINC000566738344   -0.9300
     19 O19        -7.0043   -2.2099   52.1418 O.2     1  ZINC000566738344   -0.9300
     20 C20        -9.1545   -0.6745   52.4631 C.3     1  ZINC000566738344   -0.6200
     21 C21       -11.0182   -1.4035   59.9964 C.ar    1  ZINC000566738344   -0.1400
     22 C22       -11.9294   -1.3258   61.0248 C.ar    1  ZINC000566738344   -0.0400
     23 C23       -13.2513   -1.7317   60.8177 C.ar    1  ZINC000566738344   -0.0400
     24 C24       -14.2020   -1.6521   61.8857 C.1     1  ZINC000566738344    0.2500
     25 N25       -14.9562   -1.5891   62.7330 N.1     1  ZINC000566738344   -0.4100
     26 H26       -15.6551   -1.8267   58.9897 H       1  ZINC000566738344    0.0800
     27 H27       -15.0809   -3.4650   58.5968 H       1  ZINC000566738344    0.0800
     28 H28       -15.4803   -3.0414   60.2790 H       1  ZINC000566738344    0.0700
     29 H29       -13.0255   -2.6791   57.5785 H       1  ZINC000566738344    0.1400
     30 H30        -8.8451    0.5977   57.7459 H       1  ZINC000566738344    0.0800
     31 H31       -10.0936    1.6976   57.1135 H       1  ZINC000566738344    0.0800
     32 H32       -10.4501    0.6573   58.5131 H       1  ZINC000566738344    0.0900
     33 H33       -10.2230    2.5082   55.2560 H       1  ZINC000566738344    0.0700
     34 H34       -11.0893    2.0681   53.7646 H       1  ZINC000566738344    0.0800
     35 H35       -11.5323    1.3035   55.3097 H       1  ZINC000566738344    0.0800
     36 H36        -7.2133    1.7651   53.9301 H       1  ZINC000566738344    0.1100
     37 H37        -7.1902    0.0365   54.3801 H       1  ZINC000566738344    0.0900
     38 H38        -6.6782    1.2668   51.6114 H       1  ZINC000566738344    0.1400
     39 H39        -5.6202    0.1538   52.5408 H       1  ZINC000566738344    0.1400
     40 H40        -9.3993   -1.4848   53.1498 H       1  ZINC000566738344    0.1400
     41 H41        -9.9490   -0.5474   51.7277 H       1  ZINC000566738344    0.1500
     42 H42        -9.9981   -1.0860   60.1544 H       1  ZINC000566738344    0.1200
     43 H43       -11.6248   -0.9477   61.9895 H       1  ZINC000566738344    0.1400
@<TRIPOS>BOND
     1     1     2    1
     2     1    26    1
     3     1    27    1
     4     1    28    1
     5     2    23   ar
     6     2     3   ar
     7     3     4   ar
     8     3    29    1
     9     4     5    1
    10     4    21   ar
    11     5     6    1
    12     6     7    1
    13     6     8    1
    14     6     9    1
    15     8    30    1
    16     8    31    1
    17     8    32    1
    18     9    10    2
    19     9    11   am
    20    11    12    1
    21    11    13    1
    22    12    33    1
    23    12    34    1
    24    12    35    1
    25    13    14    1
    26    13    20    1
    27    13    15    1
    28    15    16    1
    29    15    36    1
    30    15    37    1
    31    16    17    1
    32    16    38    1
    33    16    39    1
    34    17    18    2
    35    17    19    2
    36    17    20    1
    37    20    40    1
    38    20    41    1
    39    21    22   ar
    40    21    42    1
    41    22    23   ar
    42    22    43    1
    43    23    24    1
    44    24    25    3
@<TRIPOS>SUBSTRUCTURE
     1 ZINC000566738344        1 TEMP              0 ****  ****    0 ROOT


##########                                Name:    ZINC000329637067
##########                DOCK_Rotatable_Bonds:                   5
##########                         Heavy_Atoms:                  26
##########                    Molecular_Weight:             362.429
##########                DOCK_Rotatable_Bonds:                   5
##########                       Formal_Charge:           0.0199998
##########                     HBond_Acceptors:                   8
##########                        HBond_Donors:                   0
##########                         Heavy_Atoms:                  26
##########                          Grid_Score:          -28.128723
##########                     Grid_vdw_energy:          -26.955301
##########                      Grid_es_energy:           -1.173423
##########           Internal_energy_repulsive:          126.706528

@<TRIPOS>MOLECULE
ZINC000329637067
 52 54 1 0 0
SMALL
USER_CHARGES


@<TRIPOS>ATOM
      1 C1        -10.0563    1.7493   54.3587 C.3     1  ZINC000329637067   -0.1300
      2 C2         -9.4482    0.7696   53.3883 C.2     1  ZINC000329637067    0.2200
      3 C3         -8.1272    0.8436   53.0723 C.2     1  ZINC000329637067   -0.2900
      4 C4         -7.5920   -0.0792   52.1688 C.2     1  ZINC000329637067    0.2800
      5 C5         -6.1314   -0.0182   51.8028 C.3     1  ZINC000329637067   -0.1200
      6 N6         -8.3678   -1.0028   51.6383 N.2     1  ZINC000329637067   -0.5500
      7 C7         -9.6638   -1.0705   51.9524 C.2     1  ZINC000329637067    0.6400
      8 O8        -10.3602   -1.9349   51.4474 O.2     1  ZINC000329637067   -0.5300
      9 N9        -10.2115   -0.2018   52.8228 N.am    1  ZINC000329637067   -0.5000
     10 C10       -11.6359   -0.2966   53.1519 C.3     1  ZINC000329637067    0.0700
     11 C11       -11.8045   -1.0659   54.4369 C.2     1  ZINC000329637067    0.5100
     12 O12       -10.9265   -1.8115   54.8169 O.2     1  ZINC000329637067   -0.5200
     13 N13       -12.9307   -0.9253   55.1637 N.am    1  ZINC000329637067   -0.6100
     14 C14       -14.0029   -0.0258   54.7164 C.3     1  ZINC000329637067    0.1000
     15 C15       -15.3176   -0.8106   54.6700 C.3     1  ZINC000329637067   -0.1400
     16 C16       -15.5687   -1.4586   56.0334 C.3     1  ZINC000329637067   -0.1000
     17 C17       -14.4344   -2.4349   56.3528 C.3     1  ZINC000329637067   -0.1200
     18 H18       -14.3773   -3.1941   55.5727 H       1  ZINC000329637067    0.1000
     19 C19       -14.6994   -3.0971   57.6804 C.2     1  ZINC000329637067    0.5300
     20 O20       -14.7660   -4.3059   57.7525 O.2     1  ZINC000329637067   -0.5300
     21 N21       -14.8626   -2.3459   58.7874 N.am    1  ZINC000329637067   -0.6200
     22 C22       -15.1162   -2.9701   60.0957 C.3     1  ZINC000329637067    0.0800
     23 C23       -14.1285   -2.3835   61.1108 C.3     1  ZINC000329637067    0.0500
     24 O24       -14.1977   -0.9563   61.0641 O.3     1  ZINC000329637067   -0.3800
     25 C25       -13.8201   -0.3928   59.8057 C.3     1  ZINC000329637067    0.0500
     26 C26       -14.7863   -0.8778   58.7247 C.3     1  ZINC000329637067    0.0700
     27 C27       -13.1122   -1.6732   56.4152 C.3     1  ZINC000329637067    0.1200
     28 H28       -10.5335    1.2048   55.1736 H       1  ZINC000329637067    0.0900
     29 H29        -9.2752    2.3944   54.7611 H       1  ZINC000329637067    0.1000
     30 H30       -10.7999    2.3571   53.8434 H       1  ZINC000329637067    0.0900
     31 H31        -7.5008    1.6051   53.5128 H       1  ZINC000329637067    0.1600
     32 H32        -5.5579   -0.6371   52.4929 H       1  ZINC000329637067    0.1000
     33 H33        -5.9958   -0.3866   50.7859 H       1  ZINC000329637067    0.0900
     34 H34        -5.7840    1.0131   51.8650 H       1  ZINC000329637067    0.0900
     35 H35       -12.0487    0.7050   53.2713 H       1  ZINC000329637067    0.1200
     36 H36       -12.1609   -0.8127   52.3480 H       1  ZINC000329637067    0.1300
     37 H37       -14.0979    0.8053   55.4152 H       1  ZINC000329637067    0.0800
     38 H38       -13.7693    0.3551   53.7222 H       1  ZINC000329637067    0.0900
     39 H39       -16.1377   -0.1329   54.4326 H       1  ZINC000329637067    0.0900
     40 H40       -15.2522   -1.5850   53.9056 H       1  ZINC000329637067    0.0700
     41 H41       -15.6094   -0.6856   56.8009 H       1  ZINC000329637067    0.0800
     42 H42       -16.5159   -1.9974   56.0104 H       1  ZINC000329637067    0.0800
     43 H43       -16.1373   -2.7576   60.4121 H       1  ZINC000329637067    0.0800
     44 H44       -14.9707   -4.0478   60.0226 H       1  ZINC000329637067    0.1000
     45 H45       -14.3877   -2.7280   62.1119 H       1  ZINC000329637067    0.1100
     46 H46       -13.1174   -2.7072   60.8640 H       1  ZINC000329637067    0.0600
     47 H47       -13.8574    0.6947   59.8678 H       1  ZINC000329637067    0.1100
     48 H48       -12.8079   -0.7093   59.5541 H       1  ZINC000329637067    0.0600
     49 H49       -14.4248   -0.5690   57.7439 H       1  ZINC000329637067    0.1000
     50 H50       -15.7760   -0.4563   58.9011 H       1  ZINC000329637067    0.0800
     51 H51       -12.2903   -2.3776   56.5440 H       1  ZINC000329637067    0.1000
     52 H52       -13.1320   -0.9748   57.2519 H       1  ZINC000329637067    0.0800
@<TRIPOS>BOND
     1     1     2    1
     2     1    28    1
     3     1    29    1
     4     1    30    1
     5     2     9    1
     6     2     3    2
     7     3     4    1
     8     3    31    1
     9     4     5    1
    10     4     6    2
    11     5    32    1
    12     5    33    1
    13     5    34    1
    14     6     7    1
    15     7     8    2
    16     7     9   am
    17     9    10    1
    18    10    11    1
    19    10    35    1
    20    10    36    1
    21    11    12    2
    22    11    13   am
    23    13    27    1
    24    13    14    1
    25    14    15    1
    26    14    37    1
    27    14    38    1
    28    15    16    1
    29    15    39    1
    30    15    40    1
    31    16    17    1
    32    16    41    1
    33    16    42    1
    34    17    18    1
    35    17    19    1
    36    17    27    1
    37    19    20    2
    38    19    21   am
    39    21    26    1
    40    21    22    1
    41    22    23    1
    42    22    43    1
    43    22    44    1
    44    23    24    1
    45    23    45    1
    46    23    46    1
    47    24    25    1
    48    25    26    1
    49    25    47    1
    50    25    48    1
    51    26    49    1
    52    26    50    1
    53    27    51    1
    54    27    52    1
@<TRIPOS>SUBSTRUCTURE
     1 ZINC000329637067        1 TEMP              0 ****  ****    0 ROOT


##########                                Name:    ZINC000098105561
##########                DOCK_Rotatable_Bonds:                   5
##########                         Heavy_Atoms:                  25
##########                    Molecular_Weight:             368.336
##########                DOCK_Rotatable_Bonds:                   5
##########                       Formal_Charge:         2.98023e-08
##########                     HBond_Acceptors:                   9
##########                        HBond_Donors:                   0
##########                         Heavy_Atoms:                  25
##########                          Grid_Score:          -28.121519
##########                     Grid_vdw_energy:          -26.780237
##########                      Grid_es_energy:           -1.341282
##########           Internal_energy_repulsive:           10.685797

@<TRIPOS>MOLECULE
ZINC000098105561
 36 38 1 0 0
SMALL
USER_CHARGES


@<TRIPOS>ATOM
      1 C1          1.5196    0.1305   50.4579 C.3     1  ZINC000098105561   -0.0800
      2 C2          0.4164   -0.0473   49.4468 C.2     1  ZINC000098105561    0.0900
      3 C3          0.1905   -1.2049   48.8214 C.2     1  ZINC000098105561   -0.2700
      4 S4         -1.1777   -0.9804   47.7344 S.3     1  ZINC000098105561    0.1600
      5 C5         -1.3141    0.6512   48.2265 C.2     1  ZINC000098105561    0.2500
      6 N6         -2.2608    1.5482   47.7516 N.am    1  ZINC000098105561   -0.5200
      7 C7         -3.3759    1.9583   48.6086 C.3     1  ZINC000098105561    0.0500
      8 C8         -2.9743    3.1987   49.4092 C.3     1  ZINC000098105561    0.4400
      9 F9         -1.9585    2.8632   50.3109 F       1  ZINC000098105561   -0.1700
     10 F10        -2.5135    4.1890   48.5351 F       1  ZINC000098105561   -0.1700
     11 F11        -4.0836    3.6782   50.1139 F       1  ZINC000098105561   -0.1700
     12 C12        -2.1543    2.0419   46.5020 C.2     1  ZINC000098105561    0.5800
     13 O13        -2.9831    2.8273   46.0864 O.2     1  ZINC000098105561   -0.4100
     14 C14        -1.0270    1.6273   45.6355 C.2     1  ZINC000098105561    0.0800
     15 C15         0.2188    2.0720   45.9336 C.2     1  ZINC000098105561   -0.2000
     16 C16         1.3309    1.6680   45.0567 C.2     1  ZINC000098105561    0.4200
     17 O17         2.4958    1.8331   45.3736 O.2     1  ZINC000098105561   -0.4300
     18 C18         0.9500    1.0505   43.7703 C.ar    1  ZINC000098105561   -0.2200
     19 C19         1.8799    0.8592   42.7507 C.ar    1  ZINC000098105561   -0.0300
     20 C20         1.4778    0.2843   41.5647 C.ar    1  ZINC000098105561   -0.1400
     21 C21         0.1563   -0.1001   41.3876 C.ar    1  ZINC000098105561   -0.0500
     22 C22        -0.7722    0.0820   42.3896 C.ar    1  ZINC000098105561   -0.1400
     23 C23        -0.3886    0.6567   43.5968 C.ar    1  ZINC000098105561    0.1400
     24 O24        -1.2804    0.8240   44.5934 O.3     1  ZINC000098105561   -0.2300
     25 N25        -0.4079    0.9271   49.1121 N.2     1  ZINC000098105561   -0.4600
     26 H26         1.1437   -0.1114   51.4520 H       1  ZINC000098105561    0.0800
     27 H27         2.3486   -0.5330   50.2116 H       1  ZINC000098105561    0.0800
     28 H28         1.8644    1.1644   50.4415 H       1  ZINC000098105561    0.0800
     29 H29         0.7491   -2.1191   48.9577 H       1  ZINC000098105561    0.1900
     30 H30        -4.2432    2.1900   47.9903 H       1  ZINC000098105561    0.1700
     31 H31        -3.6244    1.1481   49.2942 H       1  ZINC000098105561    0.1400
     32 H32         0.3910    2.7058   46.7909 H       1  ZINC000098105561    0.1800
     33 H33         2.9081    1.1595   42.8886 H       1  ZINC000098105561    0.1400
     34 H34         2.1935    0.1327   40.7702 H       1  ZINC000098105561    0.1400
     35 H35        -0.1486   -0.5470   40.4528 H       1  ZINC000098105561    0.1400
     36 H36        -1.7974   -0.2219   42.2378 H       1  ZINC000098105561    0.1400
@<TRIPOS>BOND
     1     1     2    1
     2     1    26    1
     3     1    27    1
     4     1    28    1
     5     2    25    1
     6     2     3    2
     7     3     4    1
     8     3    29    1
     9     4     5    1
    10     5     6    1
    11     5    25    2
    12     6     7    1
    13     6    12   am
    14     7     8    1
    15     7    30    1
    16     7    31    1
    17     8     9    1
    18     8    10    1
    19     8    11    1
    20    12    13    2
    21    12    14    1
    22    14    24    1
    23    14    15    2
    24    15    16    1
    25    15    32    1
    26    16    17    2
    27    16    18    1
    28    18    23   ar
    29    18    19   ar
    30    19    20   ar
    31    19    33    1
    32    20    21   ar
    33    20    34    1
    34    21    22   ar
    35    21    35    1
    36    22    23   ar
    37    22    36    1
    38    23    24    1
@<TRIPOS>SUBSTRUCTURE
     1 ZINC000098105561        1 TEMP              0 ****  ****    0 ROOT


##########                                Name:    ZINC000885154703
##########                DOCK_Rotatable_Bonds:                   5
##########                         Heavy_Atoms:                  24
##########                    Molecular_Weight:             396.259
##########                DOCK_Rotatable_Bonds:                   5
##########                       Formal_Charge:          -0.0099998
##########                     HBond_Acceptors:                   6
##########                        HBond_Donors:                   1
##########                         Heavy_Atoms:                  24
##########                          Grid_Score:          -28.063660
##########                     Grid_vdw_energy:          -28.346832
##########                      Grid_es_energy:            0.283173
##########           Internal_energy_repulsive:            7.809904

@<TRIPOS>MOLECULE
ZINC000885154703
 43 45 1 0 0
SMALL
USER_CHARGES


@<TRIPOS>ATOM
      1 C1        -15.8243   -1.3958   61.2722 C.3     1  ZINC000885154703   -0.1500
      2 C2        -16.3354   -2.0825   60.0040 C.3     1  ZINC000885154703   -0.0300
      3 C3        -15.1862   -2.7566   59.2999 C.2     1  ZINC000885154703    0.1700
      4 N4        -15.2531   -3.8335   58.5757 N.2     1  ZINC000885154703   -0.3800
      5 O5        -14.1551   -4.1201   58.1471 O.3     1  ZINC000885154703    0.0800
      6 C6        -13.2563   -3.2260   58.5699 C.2     1  ZINC000885154703    0.1800
      7 C7        -11.7813   -3.2214   58.2612 C.3     1  ZINC000885154703    0.0000
      8 H8        -11.4521   -4.2266   57.9978 H       1  ZINC000885154703    0.1300
      9 C9        -10.9878   -2.7080   59.4804 C.3     1  ZINC000885154703   -0.1200
     10 C10        -9.8374   -1.8755   58.8617 C.3     1  ZINC000885154703   -0.1300
     11 C11       -10.5262   -1.1796   57.6616 C.3     1  ZINC000885154703    0.1400
     12 H12       -11.0824   -0.3040   57.9963 H       1  ZINC000885154703    0.1000
     13 N13        -9.5355   -0.8008   56.6510 N.am    1  ZINC000885154703   -0.7100
     14 C14        -9.8430    0.1229   55.7190 C.2     1  ZINC000885154703    0.5700
     15 O15       -10.9429    0.6407   55.7160 O.2     1  ZINC000885154703   -0.5100
     16 C16        -8.8436    0.5060   54.7012 C.ar    1  ZINC000885154703   -0.1600
     17 C17        -7.9698    1.5709   54.9407 C.ar    1  ZINC000885154703    0.1500
     18 F18        -8.0365    2.2535   56.1046 F       1  ZINC000885154703   -0.1200
     19 C19        -7.0364    1.9230   53.9825 C.ar    1  ZINC000885154703   -0.1500
     20 C20        -6.9676    1.2252   52.7917 C.ar    1  ZINC000885154703   -0.0400
     21 C21        -7.8309    0.1691   52.5488 C.ar    1  ZINC000885154703   -0.1100
     22 Br22       -7.7261   -0.7774   50.9151 Br      1  ZINC000885154703   -0.0300
     23 C23        -8.7630   -0.1972   53.4972 C.ar    1  ZINC000885154703    0.0100
     24 C24        -9.7002   -1.3467   53.2302 C.3     1  ZINC000885154703   -0.1300
     25 C25       -11.4880   -2.2506   57.1040 C.3     1  ZINC000885154703   -0.1300
     26 N26       -13.9040   -2.3507   59.3007 N.2     1  ZINC000885154703   -0.4800
     27 H27       -15.3788   -2.1390   61.9335 H       1  ZINC000885154703    0.0600
     28 H28       -15.0747   -0.6510   61.0051 H       1  ZINC000885154703    0.0600
     29 H29       -16.6556   -0.9081   61.7815 H       1  ZINC000885154703    0.0700
     30 H30       -17.0852   -2.8273   60.2712 H       1  ZINC000885154703    0.1000
     31 H31       -16.7811   -1.3393   59.3429 H       1  ZINC000885154703    0.0900
     32 H32       -11.6185   -2.0791   60.1088 H       1  ZINC000885154703    0.0800
     33 H33       -10.5878   -3.5436   60.0547 H       1  ZINC000885154703    0.0900
     34 H34        -9.4668   -1.1390   59.5747 H       1  ZINC000885154703    0.0800
     35 H35        -9.0308   -2.5246   58.5210 H       1  ZINC000885154703    0.0800
     36 H36        -8.6584   -1.2149   56.6527 H       1  ZINC000885154703    0.4000
     37 H37        -6.3603    2.7452   54.1652 H       1  ZINC000885154703    0.1500
     38 H38        -6.2375    1.5046   52.0466 H       1  ZINC000885154703    0.1500
     39 H39        -9.2474   -2.2738   53.5817 H       1  ZINC000885154703    0.0900
     40 H40       -10.6400   -1.1790   53.7563 H       1  ZINC000885154703    0.0800
     41 H41        -9.8910   -1.4187   52.1595 H       1  ZINC000885154703    0.0900
     42 H42       -11.0153   -2.7834   56.2789 H       1  ZINC000885154703    0.0900
     43 H43       -12.4125   -1.7825   56.7659 H       1  ZINC000885154703    0.0800
@<TRIPOS>BOND
     1     1     2    1
     2     1    27    1
     3     1    28    1
     4     1    29    1
     5     2     3    1
     6     2    30    1
     7     2    31    1
     8     3    26    1
     9     3     4    2
    10     4     5    1
    11     5     6    1
    12     6     7    1
    13     6    26    2
    14     7     8    1
    15     7    25    1
    16     7     9    1
    17     9    10    1
    18     9    32    1
    19     9    33    1
    20    10    11    1
    21    10    34    1
    22    10    35    1
    23    11    12    1
    24    11    13    1
    25    11    25    1
    26    13    14   am
    27    13    36    1
    28    14    15    2
    29    14    16    1
    30    16    23   ar
    31    16    17   ar
    32    17    18    1
    33    17    19   ar
    34    19    20   ar
    35    19    37    1
    36    20    21   ar
    37    20    38    1
    38    21    22    1
    39    21    23   ar
    40    23    24    1
    41    24    39    1
    42    24    40    1
    43    24    41    1
    44    25    42    1
    45    25    43    1
@<TRIPOS>SUBSTRUCTURE
     1 ZINC000885154703        1 TEMP              0 ****  ****    0 ROOT


##########                                Name:    ZINC000626935317
##########                DOCK_Rotatable_Bonds:                   6
##########                         Heavy_Atoms:                  25
##########                    Molecular_Weight:             366.441
##########                DOCK_Rotatable_Bonds:                   6
##########                       Formal_Charge:          -0.0200006
##########                     HBond_Acceptors:                   9
##########                        HBond_Donors:                   2
##########                         Heavy_Atoms:                  25
##########                          Grid_Score:          -28.027761
##########                     Grid_vdw_energy:          -26.990910
##########                      Grid_es_energy:           -1.036852
##########           Internal_energy_repulsive:           10.520750

@<TRIPOS>MOLECULE
ZINC000626935317
 47 49 1 0 0
SMALL
USER_CHARGES


@<TRIPOS>ATOM
      1 C1         -8.0165   -1.6224   60.2789 C.3     1  ZINC000626935317    0.0900
      2 N2         -9.4000   -1.2286   60.5572 N.am    1  ZINC000626935317   -0.6200
      3 C3         -9.7518   -0.2152   61.3672 C.2     1  ZINC000626935317    0.5200
      4 O4         -8.9745    0.4928   61.9717 O.2     1  ZINC000626935317   -0.5200
      5 C5        -11.2583   -0.0862   61.4148 C.3     1  ZINC000626935317   -0.1500
      6 C6        -11.7473   -0.8998   60.1942 C.3     1  ZINC000626935317   -0.1200
      7 H7        -11.8733   -0.2578   59.3225 H       1  ZINC000626935317    0.1200
      8 C8        -13.0261   -1.6315   60.5111 C.2     1  ZINC000626935317    0.5300
      9 O9        -13.1112   -2.2935   61.5237 O.2     1  ZINC000626935317   -0.5200
     10 N10       -14.0753   -1.5502   59.6689 N.am    1  ZINC000626935317   -0.7100
     11 C11       -15.3180   -2.2628   59.9760 C.3     1  ZINC000626935317    0.1200
     12 C12       -16.5665   -1.6244   59.3448 C.3     1  ZINC000626935317   -0.1600
     13 C13       -16.3006   -2.5086   58.1151 C.3     1  ZINC000626935317    0.1200
     14 N14       -15.4191   -1.8862   57.1242 N.am    1  ZINC000626935317   -1.1100
     15 S15       -15.3954   -2.4496   55.5672 S.o2    1  ZINC000626935317    2.6100
     16 C16       -17.0979   -2.2301   54.9806 C.3     1  ZINC000626935317   -0.6700
     17 O17       -14.5159   -1.5643   54.8876 O.2     1  ZINC000626935317   -0.9500
     18 O18       -15.0874   -3.8305   55.6988 O.2     1  ZINC000626935317   -0.9500
     19 C19       -15.5739   -3.4752   59.0652 C.3     1  ZINC000626935317   -0.1600
     20 C20       -10.5796   -1.8860   59.9825 C.3     1  ZINC000626935317    0.2000
     21 H21       -10.7757   -2.8211   60.5072 H       1  ZINC000626935317    0.1100
     22 C22       -10.3770   -2.1464   58.5122 C.ar    1  ZINC000626935317   -0.1600
     23 C23        -9.9606   -1.1272   57.6696 C.ar    1  ZINC000626935317   -0.0500
     24 C24        -9.7869   -1.4130   56.3238 C.ar    1  ZINC000626935317   -0.1700
     25 C25       -10.0326   -2.6949   55.8704 C.ar    1  ZINC000626935317    0.1000
     26 N26       -10.4278   -3.6401   56.7010 N.ar    1  ZINC000626935317   -0.4800
     27 C27       -10.5983   -3.4059   57.9874 C.ar    1  ZINC000626935317    0.1200
     28 H28        -7.6483   -1.0696   59.4145 H       1  ZINC000626935317    0.0600
     29 H29        -7.3938   -1.3988   61.1452 H       1  ZINC000626935317    0.0800
     30 H30        -7.9781   -2.6914   60.0699 H       1  ZINC000626935317    0.0700
     31 H31       -11.6487   -0.5126   62.3388 H       1  ZINC000626935317    0.1100
     32 H32       -11.5549    0.9584   61.3205 H       1  ZINC000626935317    0.1200
     33 H33       -14.0078   -1.0197   58.8596 H       1  ZINC000626935317    0.4000
     34 H34       -15.4281   -2.4835   61.0377 H       1  ZINC000626935317    0.1100
     35 H35       -17.4923   -1.8680   59.8659 H       1  ZINC000626935317    0.1100
     36 H36       -16.4589   -0.5578   59.1472 H       1  ZINC000626935317    0.0800
     37 H37       -17.2055   -2.9260   57.6736 H       1  ZINC000626935317    0.1100
     38 H38       -14.8492   -1.1441   57.3803 H       1  ZINC000626935317    0.4100
     39 H39       -17.3652   -1.1745   55.0273 H       1  ZINC000626935317    0.1300
     40 H40       -17.1753   -2.5793   53.9509 H       1  ZINC000626935317    0.1300
     41 H41       -17.7764   -2.8050   55.6110 H       1  ZINC000626935317    0.1300
     42 H42       -14.6651   -3.9029   58.6418 H       1  ZINC000626935317    0.0900
     43 H43       -16.2285   -4.2249   59.5098 H       1  ZINC000626935317    0.1100
     44 H44        -9.7764   -0.1343   58.0522 H       1  ZINC000626935317    0.1400
     45 H45        -9.4637   -0.6432   55.6386 H       1  ZINC000626935317    0.1400
     46 H46        -9.9000   -2.9255   54.8237 H       1  ZINC000626935317    0.1600
     47 H47       -10.9230   -4.2052   58.6370 H       1  ZINC000626935317    0.1500
@<TRIPOS>BOND
     1     1     2    1
     2     1    28    1
     3     1    29    1
     4     1    30    1
     5     2    20    1
     6     2     3   am
     7     3     4    2
     8     3     5    1
     9     5     6    1
    10     5    31    1
    11     5    32    1
    12     6     7    1
    13     6     8    1
    14     6    20    1
    15     8     9    2
    16     8    10   am
    17    10    11    1
    18    10    33    1
    19    11    19    1
    20    11    12    1
    21    11    34    1
    22    12    13    1
    23    12    35    1
    24    12    36    1
    25    13    14    1
    26    13    19    1
    27    13    37    1
    28    14    15   am
    29    14    38    1
    30    15    16    1
    31    15    17    2
    32    15    18    2
    33    16    39    1
    34    16    40    1
    35    16    41    1
    36    19    42    1
    37    19    43    1
    38    20    21    1
    39    20    22    1
    40    22    27   ar
    41    22    23   ar
    42    23    24   ar
    43    23    44    1
    44    24    25   ar
    45    24    45    1
    46    25    26   ar
    47    25    46    1
    48    26    27   ar
    49    27    47    1
@<TRIPOS>SUBSTRUCTURE
     1 ZINC000626935317        1 TEMP              0 ****  ****    0 ROOT


##########                                Name:    ZINC000435292384
##########                DOCK_Rotatable_Bonds:                   6
##########                         Heavy_Atoms:                  22
##########                    Molecular_Weight:             326.503
##########                DOCK_Rotatable_Bonds:                   6
##########                       Formal_Charge:         -0.00999993
##########                     HBond_Acceptors:                   5
##########                        HBond_Donors:                   0
##########                         Heavy_Atoms:                  22
##########                          Grid_Score:          -28.014885
##########                     Grid_vdw_energy:          -26.894331
##########                      Grid_es_energy:           -1.120555
##########           Internal_energy_repulsive:           26.219675

@<TRIPOS>MOLECULE
ZINC000435292384
 52 53 1 0 0
SMALL
USER_CHARGES


@<TRIPOS>ATOM
      1 C1          6.2934   -1.8098   52.2997 C.3     1  ZINC000435292384   -0.1500
      2 C2          5.9027   -0.3315   52.3522 C.3     1  ZINC000435292384   -0.1200
      3 C3          4.6606   -0.1014   51.4889 C.3     1  ZINC000435292384   -0.1400
      4 C4          4.2694    1.3769   51.5418 C.3     1  ZINC000435292384    0.1600
      5 H5          5.0921    1.9841   51.1641 H       1  ZINC000435292384    0.0900
      6 C6          3.9657    1.7725   52.9882 C.3     1  ZINC000435292384   -0.1700
      7 N7          3.0801    1.5972   50.7152 N.am    1  ZINC000435292384   -0.6100
      8 C8          2.0345    0.5935   50.4845 C.3     1  ZINC000435292384    0.1200
      9 C9          0.8182    1.3811   49.9492 C.3     1  ZINC000435292384   -0.1300
     10 H10         0.1515    1.6690   50.7620 H       1  ZINC000435292384    0.1100
     11 C11         0.0783    0.5861   48.9044 C.2     1  ZINC000435292384    0.5200
     12 O12         0.6322   -0.3301   48.3347 O.2     1  ZINC000435292384   -0.5200
     13 N13        -1.1989    0.8934   48.6031 N.am    1  ZINC000435292384   -0.6000
     14 C14        -1.8438    2.0144   49.3146 C.3     1  ZINC000435292384    0.1000
     15 C15        -2.6815    2.8958   48.3706 C.3     1  ZINC000435292384   -0.1300
     16 C16        -1.9562    3.0884   47.0615 C.3     1  ZINC000435292384   -0.1100
     17 C17        -2.3901    2.0049   46.0790 C.3     1  ZINC000435292384   -0.1200
     18 C18        -1.6451    0.7425   46.2013 C.3     1  ZINC000435292384   -0.0700
     19 H19        -0.5808    0.9373   46.0685 H       1  ZINC000435292384    0.0900
     20 S20        -2.2080   -0.4133   44.9214 S.3     1  ZINC000435292384   -0.2500
     21 C21        -1.4462    0.2459   43.4128 C.3     1  ZINC000435292384   -0.1200
     22 C22        -1.8789    0.1152   47.5920 C.3     1  ZINC000435292384    0.1400
     23 C23         1.4964    2.6221   49.3240 C.3     1  ZINC000435292384   -0.1400
     24 C24         2.8036    2.7465   50.0753 C.2     1  ZINC000435292384    0.5200
     25 O25         3.5038    3.7366   50.0919 O.2     1  ZINC000435292384   -0.5200
     26 H26         7.1783   -1.9738   52.9147 H       1  ZINC000435292384    0.0500
     27 H27         5.4707   -2.4168   52.6777 H       1  ZINC000435292384    0.0500
     28 H28         6.5098   -2.0921   51.2693 H       1  ZINC000435292384    0.0500
     29 H29         5.6864   -0.0492   53.3825 H       1  ZINC000435292384    0.0600
     30 H30         6.7254    0.2755   51.9742 H       1  ZINC000435292384    0.0600
     31 H31         4.8770   -0.3832   50.4584 H       1  ZINC000435292384    0.0800
     32 H32         3.8380   -0.7086   51.8665 H       1  ZINC000435292384    0.0800
     33 H33         3.1431    1.1653   53.3658 H       1  ZINC000435292384    0.0700
     34 H34         4.8505    1.6085   53.6032 H       1  ZINC000435292384    0.0700
     35 H35         3.6870    2.8256   53.0259 H       1  ZINC000435292384    0.0600
     36 H36         2.3674   -0.1348   49.7450 H       1  ZINC000435292384    0.0900
     37 H37         1.7788    0.0936   51.4187 H       1  ZINC000435292384    0.0800
     38 H38        -2.4928    1.6130   50.0929 H       1  ZINC000435292384    0.0700
     39 H39        -1.0729    2.6281   49.7807 H       1  ZINC000435292384    0.0900
     40 H40        -3.6419    2.4151   48.1844 H       1  ZINC000435292384    0.0700
     41 H41        -2.8497    3.8666   48.8369 H       1  ZINC000435292384    0.0800
     42 H42        -2.1990    4.0690   46.6521 H       1  ZINC000435292384    0.0700
     43 H43        -0.8812    3.0193   47.2278 H       1  ZINC000435292384    0.0600
     44 H44        -3.4488    1.7986   46.2366 H       1  ZINC000435292384    0.0800
     45 H45        -2.2623    2.3853   45.0656 H       1  ZINC000435292384    0.0600
     46 H46        -1.7983    1.2632   43.2427 H       1  ZINC000435292384    0.0800
     47 H47        -0.3620    0.2506   43.5254 H       1  ZINC000435292384    0.0800
     48 H48        -1.7205   -0.3803   42.5638 H       1  ZINC000435292384    0.1000
     49 H49        -1.4921   -0.9038   47.6003 H       1  ZINC000435292384    0.0900
     50 H50        -2.9472    0.0991   47.8079 H       1  ZINC000435292384    0.0900
     51 H51         1.6768    2.4633   48.2607 H       1  ZINC000435292384    0.1100
     52 H52         0.8842    3.5104   49.4795 H       1  ZINC000435292384    0.1100
@<TRIPOS>BOND
     1     1     2    1
     2     1    26    1
     3     1    27    1
     4     1    28    1
     5     2     3    1
     6     2    29    1
     7     2    30    1
     8     3     4    1
     9     3    31    1
    10     3    32    1
    11     4     5    1
    12     4     6    1
    13     4     7    1
    14     6    33    1
    15     6    34    1
    16     6    35    1
    17     7    24   am
    18     7     8    1
    19     8     9    1
    20     8    36    1
    21     8    37    1
    22     9    10    1
    23     9    11    1
    24     9    23    1
    25    11    12    2
    26    11    13   am
    27    13    22    1
    28    13    14    1
    29    14    15    1
    30    14    38    1
    31    14    39    1
    32    15    16    1
    33    15    40    1
    34    15    41    1
    35    16    17    1
    36    16    42    1
    37    16    43    1
    38    17    18    1
    39    17    44    1
    40    17    45    1
    41    18    19    1
    42    18    20    1
    43    18    22    1
    44    20    21    1
    45    21    46    1
    46    21    47    1
    47    21    48    1
    48    22    49    1
    49    22    50    1
    50    23    24    1
    51    23    51    1
    52    23    52    1
    53    24    25    2
@<TRIPOS>SUBSTRUCTURE
     1 ZINC000435292384        1 TEMP              0 ****  ****    0 ROOT


##########                                Name:    ZINC000951315041
##########                DOCK_Rotatable_Bonds:                   5
##########                         Heavy_Atoms:                  25
##########                    Molecular_Weight:             340.382
##########                DOCK_Rotatable_Bonds:                   5
##########                       Formal_Charge:          0.00999974
##########                     HBond_Acceptors:                   7
##########                        HBond_Donors:                   1
##########                         Heavy_Atoms:                  25
##########                          Grid_Score:          -27.996643
##########                     Grid_vdw_energy:          -27.442225
##########                      Grid_es_energy:           -0.554418
##########           Internal_energy_repulsive:           10.134484

@<TRIPOS>MOLECULE
ZINC000951315041
 45 47 1 0 0
SMALL
USER_CHARGES


@<TRIPOS>ATOM
      1 C1          2.6473    0.7865   44.7033 C.3     1  ZINC000951315041    0.0500
      2 N2          1.1894    0.6860   44.6008 N.am    1  ZINC000951315041   -0.4900
      3 C3          0.4457    0.6763   45.7227 C.2     1  ZINC000951315041    0.1700
      4 C4         -0.9291    0.5819   45.6499 C.2     1  ZINC000951315041   -0.2400
      5 C5         -1.7395    0.5716   46.8817 C.2     1  ZINC000951315041    0.5800
      6 O6         -1.8878   -0.4629   47.5034 O.2     1  ZINC000951315041   -0.5200
      7 N7         -2.3159    1.7089   47.3187 N.am    1  ZINC000951315041   -0.6000
      8 C8         -2.1460    2.9666   46.5785 C.3     1  ZINC000951315041    0.1100
      9 C9         -1.6228    4.0380   47.5404 C.3     1  ZINC000951315041   -0.1300
     10 C10        -2.5621    4.1392   48.7445 C.3     1  ZINC000951315041   -0.1300
     11 C11        -2.5925    2.7996   49.4839 C.3     1  ZINC000951315041    0.1300
     12 H12        -1.5843    2.5385   49.8055 H       1  ZINC000951315041    0.1000
     13 N13        -3.4666    2.9071   50.6545 N.am    1  ZINC000951315041   -0.7200
     14 C14        -2.9324    2.9883   51.8893 C.2     1  ZINC000951315041    0.5700
     15 O15        -1.7254    2.9710   52.0315 O.2     1  ZINC000951315041   -0.5200
     16 C16        -3.8145    3.0986   53.0706 C.ar    1  ZINC000951315041   -0.1900
     17 C17        -3.2721    3.1908   54.3578 C.ar    1  ZINC000951315041   -0.0100
     18 C18        -4.1412    3.2926   55.4300 C.ar    1  ZINC000951315041   -0.1800
     19 C19        -5.5046    3.3001   55.1979 C.ar    1  ZINC000951315041    0.1300
     20 N20        -5.9877    3.2114   53.9732 N.ar    1  ZINC000951315041   -0.4900
     21 C21        -5.2019    3.1185   52.9208 C.ar    1  ZINC000951315041    0.1400
     22 C22        -3.1313    1.7131   48.5409 C.3     1  ZINC000951315041    0.1000
     23 C23        -1.5556    0.4954   44.3829 C.2     1  ZINC000951315041    0.0100
     24 C24        -0.7838    0.5075   43.2635 C.2     1  ZINC000951315041   -0.2300
     25 C25         0.6145    0.6103   43.3868 C.2     1  ZINC000951315041    0.5100
     26 O26         1.3111    0.6220   42.3857 O.2     1  ZINC000951315041   -0.5400
     27 H27         3.0826    0.7851   43.7040 H       1  ZINC000951315041    0.1100
     28 H28         2.9126    1.7125   45.2137 H       1  ZINC000951315041    0.0800
     29 H29         3.0312   -0.0627   45.2682 H       1  ZINC000951315041    0.0800
     30 H30         0.9284    0.7425   46.6865 H       1  ZINC000951315041    0.1700
     31 H31        -1.4301    2.8207   45.7697 H       1  ZINC000951315041    0.1000
     32 H32        -3.1053    3.2813   46.1677 H       1  ZINC000951315041    0.0700
     33 H33        -0.6238    3.7652   47.8802 H       1  ZINC000951315041    0.0700
     34 H34        -1.5835    4.9991   47.0279 H       1  ZINC000951315041    0.0900
     35 H35        -2.2055    4.9180   49.4186 H       1  ZINC000951315041    0.0800
     36 H36        -3.5665    4.3878   48.4017 H       1  ZINC000951315041    0.0700
     37 H37        -4.4299    2.9198   50.5412 H       1  ZINC000951315041    0.4000
     38 H38        -2.2029    3.1822   54.5102 H       1  ZINC000951315041    0.1500
     39 H39        -3.7587    3.3652   56.4374 H       1  ZINC000951315041    0.1500
     40 H40        -6.1851    3.3795   56.0329 H       1  ZINC000951315041    0.1600
     41 H41        -5.6350    3.0480   51.9339 H       1  ZINC000951315041    0.1600
     42 H42        -4.1707    1.9274   48.2924 H       1  ZINC000951315041    0.0700
     43 H43        -3.0630    0.7401   49.0276 H       1  ZINC000951315041    0.0900
     44 H44        -2.6303    0.4205   44.3070 H       1  ZINC000951315041    0.1400
     45 H45        -1.2407    0.4421   42.2870 H       1  ZINC000951315041    0.1600
@<TRIPOS>BOND
     1     1     2    1
     2     1    27    1
     3     1    28    1
     4     1    29    1
     5     2    25   am
     6     2     3    1
     7     3     4    2
     8     3    30    1
     9     4     5    1
    10     4    23    1
    11     5     6    2
    12     5     7   am
    13     7    22    1
    14     7     8    1
    15     8     9    1
    16     8    31    1
    17     8    32    1
    18     9    10    1
    19     9    33    1
    20     9    34    1
    21    10    11    1
    22    10    35    1
    23    10    36    1
    24    11    12    1
    25    11    13    1
    26    11    22    1
    27    13    14   am
    28    13    37    1
    29    14    15    2
    30    14    16    1
    31    16    21   ar
    32    16    17   ar
    33    17    18   ar
    34    17    38    1
    35    18    19   ar
    36    18    39    1
    37    19    20   ar
    38    19    40    1
    39    20    21   ar
    40    21    41    1
    41    22    42    1
    42    22    43    1
    43    23    24    2
    44    23    44    1
    45    24    25    1
    46    24    45    1
    47    25    26    2
@<TRIPOS>SUBSTRUCTURE
     1 ZINC000951315041        1 TEMP              0 ****  ****    0 ROOT


##########                                Name:    ZINC000854704989
##########                DOCK_Rotatable_Bonds:                   5
##########                         Heavy_Atoms:                  22
##########                    Molecular_Weight:             365.227
##########                DOCK_Rotatable_Bonds:                   5
##########                       Formal_Charge:        -1.78814e-07
##########                     HBond_Acceptors:                   5
##########                        HBond_Donors:                   1
##########                         Heavy_Atoms:                  22
##########                          Grid_Score:          -27.953396
##########                     Grid_vdw_energy:          -28.295216
##########                      Grid_es_energy:            0.341819
##########           Internal_energy_repulsive:            6.025760

@<TRIPOS>MOLECULE
ZINC000854704989
 39 41 1 0 0
SMALL
USER_CHARGES


@<TRIPOS>ATOM
      1 O1         -5.4161    0.6033   50.9502 O.2     1  ZINC000854704989   -0.5300
      2 C2         -4.8619    1.5093   51.5415 C.2     1  ZINC000854704989    0.5700
      3 N3         -5.4453    2.0651   52.6219 N.am    1  ZINC000854704989   -0.7300
      4 C4         -6.7500    1.5814   53.0800 C.3     1  ZINC000854704989    0.2000
      5 C5         -6.8109    1.6489   54.5843 C.2     1  ZINC000854704989   -0.0500
      6 C6         -7.5496    0.8614   55.4015 C.2     1  ZINC000854704989   -0.1700
      7 C7         -7.2458    1.3357   56.6994 C.2     1  ZINC000854704989    0.0000
      8 Br8        -7.9340    0.6818   58.3348 Br      1  ZINC000854704989    0.0600
      9 N9         -6.3976    2.3122   56.5442 N.2     1  ZINC000854704989   -0.3200
     10 O10        -6.1401    2.4963   55.3772 O.3     1  ZINC000854704989    0.1300
     11 C11        -3.5451    1.9974   51.0792 C.ar    1  ZINC000854704989   -0.1300
     12 C12        -2.6982    2.6705   51.9608 C.ar    1  ZINC000854704989   -0.0900
     13 C13        -1.4705    3.1231   51.5231 C.ar    1  ZINC000854704989   -0.1200
     14 C14        -1.0786    2.9114   50.2134 C.ar    1  ZINC000854704989   -0.0900
     15 C15        -1.9137    2.2447   49.3341 C.ar    1  ZINC000854704989   -0.0800
     16 C16        -1.4785    2.0185   47.9091 C.3     1  ZINC000854704989   -0.0800
     17 H17        -0.4543    2.3687   47.7812 H       1  ZINC000854704989    0.0900
     18 C18        -2.4047    2.7881   46.9626 C.3     1  ZINC000854704989   -0.1100
     19 C19        -2.0011    2.4886   45.5156 C.3     1  ZINC000854704989   -0.1600
     20 C20        -2.0567    0.9768   45.2810 C.3     1  ZINC000854704989    0.0600
     21 O21        -1.1966    0.3194   46.2138 O.3     1  ZINC000854704989   -0.3800
     22 C22        -1.5528    0.5246   47.5825 C.3     1  ZINC000854704989    0.0700
     23 C23        -3.1412    1.7821   49.7604 C.ar    1  ZINC000854704989   -0.0500
     24 H24        -5.0012    2.7854   53.0961 H       1  ZINC000854704989    0.4000
     25 H25        -7.5377    2.2043   52.6561 H       1  ZINC000854704989    0.1100
     26 H26        -6.8890    0.5499   52.7567 H       1  ZINC000854704989    0.1000
     27 H27        -8.2164    0.0576   55.1265 H       1  ZINC000854704989    0.1900
     28 H28        -3.0033    2.8370   52.9833 H       1  ZINC000854704989    0.1200
     29 H29        -0.8142    3.6440   52.2044 H       1  ZINC000854704989    0.1300
     30 H30        -0.1169    3.2682   49.8756 H       1  ZINC000854704989    0.1300
     31 H31        -3.4357    2.4740   47.1260 H       1  ZINC000854704989    0.0700
     32 H32        -2.3135    3.8575   47.1526 H       1  ZINC000854704989    0.0700
     33 H33        -2.6897    2.9885   44.8344 H       1  ZINC000854704989    0.0800
     34 H34        -0.9873    2.8476   45.3385 H       1  ZINC000854704989    0.0700
     35 H35        -3.0791    0.6250   45.4188 H       1  ZINC000854704989    0.0500
     36 H36        -1.7293    0.7543   44.2654 H       1  ZINC000854704989    0.1000
     37 H37        -0.8628   -0.0239   48.2238 H       1  ZINC000854704989    0.1000
     38 H38        -2.5685    0.1671   47.7515 H       1  ZINC000854704989    0.0500
     39 H39        -3.7919    1.2615   49.0733 H       1  ZINC000854704989    0.1400
@<TRIPOS>BOND
     1     1     2    2
     2     2     3   am
     3     2    11    1
     4     3     4    1
     5     3    24    1
     6     4     5    1
     7     4    25    1
     8     4    26    1
     9     5    10    1
    10     5     6    2
    11     6     7    1
    12     6    27    1
    13     7     8    1
    14     7     9    2
    15     9    10    1
    16    11    23   ar
    17    11    12   ar
    18    12    13   ar
    19    12    28    1
    20    13    14   ar
    21    13    29    1
    22    14    15   ar
    23    14    30    1
    24    15    16    1
    25    15    23   ar
    26    16    17    1
    27    16    22    1
    28    16    18    1
    29    18    19    1
    30    18    31    1
    31    18    32    1
    32    19    20    1
    33    19    33    1
    34    19    34    1
    35    20    21    1
    36    20    35    1
    37    20    36    1
    38    21    22    1
    39    22    37    1
    40    22    38    1
    41    23    39    1
@<TRIPOS>SUBSTRUCTURE
     1 ZINC000854704989        1 TEMP              0 ****  ****    0 ROOT


##########                                Name:    ZINC000186105981
##########                DOCK_Rotatable_Bonds:                   6
##########                         Heavy_Atoms:                  26
##########                    Molecular_Weight:             396.873
##########                DOCK_Rotatable_Bonds:                   6
##########                       Formal_Charge:          -0.0400003
##########                     HBond_Acceptors:                   9
##########                        HBond_Donors:                   1
##########                         Heavy_Atoms:                  26
##########                          Grid_Score:          -27.949417
##########                     Grid_vdw_energy:          -27.717417
##########                      Grid_es_energy:           -0.232001
##########           Internal_energy_repulsive:           25.292925

@<TRIPOS>MOLECULE
ZINC000186105981
 44 46 1 0 0
SMALL
USER_CHARGES


@<TRIPOS>ATOM
      1 C1        -10.3414   -3.3052   59.3567 C.3     1  ZINC000186105981   -0.1400
      2 C2        -10.4946   -2.8061   57.9186 C.3     1  ZINC000186105981   -0.1100
      3 C3        -11.6978   -3.4905   57.2667 C.3     1  ZINC000186105981   -0.1600
      4 C4        -10.7109   -1.2916   57.9247 C.3     1  ZINC000186105981    0.1600
      5 H5        -11.7723   -1.0756   57.8023 H       1  ZINC000186105981    0.1200
      6 C6         -9.9377   -0.6691   56.7908 C.2     1  ZINC000186105981    0.4900
      7 O7         -9.5723   -1.3532   55.8583 O.2     1  ZINC000186105981   -0.4300
      8 N8         -9.6521    0.6479   56.8128 N.am    1  ZINC000186105981   -0.6300
      9 C9         -8.9390    1.2219   55.7672 C.2     1  ZINC000186105981    0.2400
     10 N10        -9.4057    2.0683   54.8940 N.2     1  ZINC000186105981   -0.2600
     11 N11        -8.6155    2.4920   54.0072 N.2     1  ZINC000186105981   -0.2000
     12 C12        -7.3886    2.0520   54.0291 C.2     1  ZINC000186105981    0.0300
     13 C13        -6.3135    2.4234   53.0853 C.ar    1  ZINC000186105981   -0.0500
     14 C14        -5.7570    3.7046   53.1238 C.ar    1  ZINC000186105981    0.1300
     15 F15        -6.2002    4.6088   54.0245 F       1  ZINC000186105981   -0.1200
     16 C16        -4.7516    4.0442   52.2381 C.ar    1  ZINC000186105981   -0.1400
     17 C17        -4.2968    3.1192   51.3160 C.ar    1  ZINC000186105981   -0.0600
     18 C18        -4.8439    1.8491   51.2723 C.ar    1  ZINC000186105981   -0.1200
     19 C19        -5.8448    1.4936   52.1544 C.ar    1  ZINC000186105981    0.0200
     20 Cl20       -6.5288   -0.1009   52.0975 Cl      1  ZINC000186105981   -0.0100
     21 S21        -7.2380    0.9399   55.3910 S.3     1  ZINC000186105981    0.1200
     22 N22       -10.2432   -0.7366   59.1972 N.am    1  ZINC000186105981   -0.6100
     23 C23       -11.1270   -0.2464   60.2616 C.3     1  ZINC000186105981    0.1000
     24 C24       -10.2469   -0.1787   61.5294 C.3     1  ZINC000186105981   -0.1300
     25 C25        -8.8342   -0.0105   60.9239 C.3     1  ZINC000186105981   -0.1600
     26 C26        -8.9497   -0.6162   59.5425 C.2     1  ZINC000186105981    0.5200
     27 O27        -8.0117   -0.9393   58.8450 O.2     1  ZINC000186105981   -0.5000
     28 H28       -10.1873   -4.3842   59.3524 H       1  ZINC000186105981    0.0600
     29 H29        -9.4843   -2.8176   59.8211 H       1  ZINC000186105981    0.0600
     30 H30       -11.2435   -3.0692   59.9212 H       1  ZINC000186105981    0.0600
     31 H31        -9.5925   -3.0421   57.3541 H       1  ZINC000186105981    0.0900
     32 H32       -12.6113   -3.1803   57.7740 H       1  ZINC000186105981    0.0600
     33 H33       -11.7516   -3.2069   56.2156 H       1  ZINC000186105981    0.0600
     34 H34       -11.5876   -4.5720   57.3459 H       1  ZINC000186105981    0.0700
     35 H35        -9.9443    1.1951   57.5586 H       1  ZINC000186105981    0.4200
     36 H36        -4.3204    5.0339   52.2661 H       1  ZINC000186105981    0.1500
     37 H37        -3.5110    3.3898   50.6264 H       1  ZINC000186105981    0.1500
     38 H38        -4.4838    1.1323   50.5491 H       1  ZINC000186105981    0.1500
     39 H39       -11.5049    0.7448   60.0114 H       1  ZINC000186105981    0.0700
     40 H40       -11.9547   -0.9392   60.4134 H       1  ZINC000186105981    0.0800
     41 H41       -10.5131    0.6815   62.1436 H       1  ZINC000186105981    0.0900
     42 H42       -10.3179   -1.1027   62.1032 H       1  ZINC000186105981    0.0800
     43 H43        -8.5693    1.0450   60.8610 H       1  ZINC000186105981    0.1100
     44 H44        -8.0981   -0.5549   61.5158 H       1  ZINC000186105981    0.1000
@<TRIPOS>BOND
     1     1     2    1
     2     1    28    1
     3     1    29    1
     4     1    30    1
     5     2     3    1
     6     2     4    1
     7     2    31    1
     8     3    32    1
     9     3    33    1
    10     3    34    1
    11     4     5    1
    12     4     6    1
    13     4    22    1
    14     6     7    2
    15     6     8   am
    16     8     9    1
    17     8    35    1
    18     9    21    1
    19     9    10    2
    20    10    11    1
    21    11    12    2
    22    12    13    1
    23    12    21    1
    24    13    19   ar
    25    13    14   ar
    26    14    15    1
    27    14    16   ar
    28    16    17   ar
    29    16    36    1
    30    17    18   ar
    31    17    37    1
    32    18    19   ar
    33    18    38    1
    34    19    20    1
    35    22    26   am
    36    22    23    1
    37    23    24    1
    38    23    39    1
    39    23    40    1
    40    24    25    1
    41    24    41    1
    42    24    42    1
    43    25    26    1
    44    25    43    1
    45    25    44    1
    46    26    27    2
@<TRIPOS>SUBSTRUCTURE
     1 ZINC000186105981        1 TEMP              0 ****  ****    0 ROOT


##########                                Name:    ZINC000179743483
##########                DOCK_Rotatable_Bonds:                   5
##########                         Heavy_Atoms:                  23
##########                    Molecular_Weight:             393.347
##########                DOCK_Rotatable_Bonds:                   5
##########                       Formal_Charge:          -0.0199999
##########                     HBond_Acceptors:                   4
##########                        HBond_Donors:                   0
##########                         Heavy_Atoms:                  23
##########                          Grid_Score:          -27.935160
##########                     Grid_vdw_energy:          -27.135523
##########                      Grid_es_energy:           -0.799636
##########           Internal_energy_repulsive:           21.987246

@<TRIPOS>MOLECULE
ZINC000179743483
 44 46 1 0 0
SMALL
USER_CHARGES


@<TRIPOS>ATOM
      1 C1          1.5337    0.7028   50.8312 C.3     1  ZINC000179743483   -0.1400
      2 C2          0.3352    1.0001   49.9276 C.3     1  ZINC000179743483   -0.1000
      3 H3         -0.5316    0.4394   50.2775 H       1  ZINC000179743483    0.1000
      4 C4          0.0245    2.4977   49.9690 C.3     1  ZINC000179743483   -0.0700
      5 C5         -0.3695    2.8905   51.3696 C.ar    1  ZINC000179743483   -0.0600
      6 C6         -1.6872    2.7808   51.7732 C.ar    1  ZINC000179743483   -0.1100
      7 C7         -2.0489    3.1405   53.0578 C.ar    1  ZINC000179743483   -0.0900
      8 C8         -1.0923    3.6103   53.9396 C.ar    1  ZINC000179743483   -0.0900
      9 Br9        -1.5865    4.1019   55.6974 Br      1  ZINC000179743483   -0.0500
     10 C10         0.2260    3.7198   53.5353 C.ar    1  ZINC000179743483   -0.0900
     11 C11         0.5877    3.3549   52.2522 C.ar    1  ZINC000179743483   -0.1100
     12 C12         0.6591    0.5932   48.5133 C.2     1  ZINC000179743483    0.5200
     13 O13         1.8122    0.4130   48.1831 O.2     1  ZINC000179743483   -0.5300
     14 N14        -0.3324    0.4295   47.6152 N.am    1  ZINC000179743483   -0.6100
     15 C15        -1.7339    0.6441   48.0002 C.3     1  ZINC000179743483    0.1000
     16 C16        -2.3652    1.6443   47.0265 C.3     1  ZINC000179743483   -0.1400
     17 C17        -2.1768    1.1428   45.5929 C.3     1  ZINC000179743483   -0.1100
     18 C18        -0.6826    1.0401   45.2788 C.3     1  ZINC000179743483   -0.0200
     19 H19        -0.2159    2.0167   45.4073 H       1  ZINC000179743483    0.0900
     20 C20        -0.4983    0.5779   43.8563 C.2     1  ZINC000179743483    0.0500
     21 N21         0.5883    0.7074   43.1727 N.2     1  ZINC000179743483   -0.4700
     22 C22         0.5800    0.2462   41.9381 C.2     1  ZINC000179743483    0.0400
     23 C23        -0.5780   -0.3029   41.5595 C.2     1  ZINC000179743483   -0.2600
     24 S24        -1.6964   -0.2006   42.9172 S.3     1  ZINC000179743483    0.1300
     25 C25        -0.0318    0.0390   46.2310 C.3     1  ZINC000179743483    0.1200
     26 H26         2.4186    1.2022   50.4368 H       1  ZINC000179743483    0.0700
     27 H27         1.3290    1.0672   51.8378 H       1  ZINC000179743483    0.0700
     28 H28         1.7072   -0.3728   50.8624 H       1  ZINC000179743483    0.0600
     29 H29         0.9082    3.0606   49.6688 H       1  ZINC000179743483    0.0900
     30 H30        -0.7958    2.7175   49.2857 H       1  ZINC000179743483    0.0800
     31 H31        -2.4341    2.4144   51.0845 H       1  ZINC000179743483    0.1300
     32 H32        -3.0785    3.0551   53.3729 H       1  ZINC000179743483    0.1300
     33 H33         0.9732    4.0865   54.2234 H       1  ZINC000179743483    0.1300
     34 H34         1.6170    3.4404   51.9364 H       1  ZINC000179743483    0.1300
     35 H35        -2.2744   -0.3014   47.9542 H       1  ZINC000179743483    0.0700
     36 H36        -1.7775    1.0434   49.0135 H       1  ZINC000179743483    0.0900
     37 H37        -3.4294    1.7394   47.2418 H       1  ZINC000179743483    0.0800
     38 H38        -1.8825    2.6152   47.1386 H       1  ZINC000179743483    0.0700
     39 H39        -2.6382    0.1607   45.4883 H       1  ZINC000179743483    0.0800
     40 H40        -2.6466    1.8403   44.8995 H       1  ZINC000179743483    0.0700
     41 H41         1.4387    0.3074   41.2859 H       1  ZINC000179743483    0.1800
     42 H42        -0.7896   -0.7363   40.5931 H       1  ZINC000179743483    0.1800
     43 H43         1.0473    0.0363   46.0769 H       1  ZINC000179743483    0.0900
     44 H44        -0.4323   -0.9573   46.0435 H       1  ZINC000179743483    0.0800
@<TRIPOS>BOND
     1     1     2    1
     2     1    26    1
     3     1    27    1
     4     1    28    1
     5     2     3    1
     6     2     4    1
     7     2    12    1
     8     4     5    1
     9     4    29    1
    10     4    30    1
    11     5    11   ar
    12     5     6   ar
    13     6     7   ar
    14     6    31    1
    15     7     8   ar
    16     7    32    1
    17     8     9    1
    18     8    10   ar
    19    10    11   ar
    20    10    33    1
    21    11    34    1
    22    12    13    2
    23    12    14   am
    24    14    25    1
    25    14    15    1
    26    15    16    1
    27    15    35    1
    28    15    36    1
    29    16    17    1
    30    16    37    1
    31    16    38    1
    32    17    18    1
    33    17    39    1
    34    17    40    1
    35    18    19    1
    36    18    20    1
    37    18    25    1
    38    20    24    1
    39    20    21    2
    40    21    22    1
    41    22    23    2
    42    22    41    1
    43    23    24    1
    44    23    42    1
    45    25    43    1
    46    25    44    1
@<TRIPOS>SUBSTRUCTURE
     1 ZINC000179743483        1 TEMP              0 ****  ****    0 ROOT


##########                                Name:    ZINC000543429378
##########                DOCK_Rotatable_Bonds:                   6
##########                         Heavy_Atoms:                  29
##########                    Molecular_Weight:             406.408
##########                DOCK_Rotatable_Bonds:                   6
##########                       Formal_Charge:           0.0100003
##########                     HBond_Acceptors:                   9
##########                        HBond_Donors:                   1
##########                         Heavy_Atoms:                  29
##########                          Grid_Score:          -27.925453
##########                     Grid_vdw_energy:          -27.747282
##########                      Grid_es_energy:           -0.178172
##########           Internal_energy_repulsive:           37.770103

@<TRIPOS>MOLECULE
ZINC000543429378
 50 53 1 0 0
SMALL
USER_CHARGES


@<TRIPOS>ATOM
      1 O1        -10.1948   -2.8955   56.9755 O.2     1  ZINC000543429378   -0.5100
      2 C2        -11.3404   -2.5006   57.0261 C.2     1  ZINC000543429378    0.5200
      3 N3        -11.7098   -1.4120   56.3225 N.am    1  ZINC000543429378   -0.6600
      4 C4        -10.7701   -0.7341   55.5381 C.ar    1  ZINC000543429378    0.1900
      5 C5        -10.4240    0.5756   55.8443 C.ar    1  ZINC000543429378   -0.1600
      6 C6         -9.4958    1.2448   55.0699 C.ar    1  ZINC000543429378   -0.0600
      7 C7         -8.9100    0.6137   53.9894 C.ar    1  ZINC000543429378   -0.2100
      8 C8         -9.2521   -0.6953   53.6787 C.ar    1  ZINC000543429378    0.1300
      9 O9         -8.6752   -1.3147   52.6155 O.3     1  ZINC000543429378   -0.3100
     10 C10        -8.1737   -0.4783   51.5711 C.3     1  ZINC000543429378    0.6000
     11 F11        -9.1118    0.5180   51.2803 F       1  ZINC000543429378   -0.1600
     12 F12        -6.9758    0.1153   51.9836 F       1  ZINC000543429378   -0.1300
     13 F13        -7.9423   -1.2491   50.4269 F       1  ZINC000543429378   -0.1600
     14 C14       -10.1786   -1.3716   54.4564 C.ar    1  ZINC000543429378   -0.1300
     15 C15       -12.3525   -3.2307   57.8710 C.3     1  ZINC000543429378    0.0700
     16 H16       -12.0908   -4.2869   57.9340 H       1  ZINC000543429378    0.1200
     17 C17       -13.7696   -3.0721   57.2549 C.3     1  ZINC000543429378   -0.1200
     18 C18       -14.6445   -2.9256   58.5094 C.3     1  ZINC000543429378   -0.1000
     19 H19       -14.8241   -3.8935   58.9773 H       1  ZINC000543429378    0.0900
     20 C20       -15.9463   -2.1689   58.3072 C.3     1  ZINC000543429378   -0.1100
     21 C21       -16.6073   -2.0204   59.6868 C.3     1  ZINC000543429378   -0.1200
     22 C22       -15.6945   -1.2919   60.6687 C.3     1  ZINC000543429378   -0.1100
     23 C23       -14.3227   -1.9788   60.7740 C.3     1  ZINC000543429378   -0.0900
     24 C24       -13.7224   -2.0378   59.3886 C.3     1  ZINC000543429378    0.0700
     25 H25       -13.7075   -1.0355   58.9604 H       1  ZINC000543429378    0.0900
     26 N26       -12.3974   -2.6378   59.2332 N.3     1  ZINC000543429378   -0.4300
     27 C27       -11.4019   -1.6877   59.3826 C.ar    1  ZINC000543429378    0.5000
     28 N28       -11.6959   -0.4089   59.1995 N.ar    1  ZINC000543429378   -0.5300
     29 C29       -10.7681    0.5243   59.3350 C.ar    1  ZINC000543429378    0.1800
     30 C30        -9.4769    0.1499   59.6726 C.ar    1  ZINC000543429378   -0.2500
     31 C31        -9.2041   -1.1964   59.8567 C.ar    1  ZINC000543429378    0.1800
     32 N32       -10.1792   -2.0783   59.7107 N.ar    1  ZINC000543429378   -0.5300
     33 H33       -12.6269   -1.0985   56.3600 H       1  ZINC000543429378    0.4200
     34 H34       -10.8810    1.0714   56.6879 H       1  ZINC000543429378    0.1400
     35 H35        -9.2280    2.2633   55.3095 H       1  ZINC000543429378    0.1400
     36 H36        -8.1853    1.1395   53.3855 H       1  ZINC000543429378    0.1400
     37 H37       -10.4459   -2.3901   54.2162 H       1  ZINC000543429378    0.1500
     38 H38       -13.8267   -2.1785   56.6334 H       1  ZINC000543429378    0.0800
     39 H39       -14.0490   -3.9591   56.6863 H       1  ZINC000543429378    0.0900
     40 H40       -15.7415   -1.1846   57.8862 H       1  ZINC000543429378    0.0700
     41 H41       -16.6014   -2.7295   57.6404 H       1  ZINC000543429378    0.0700
     42 H42       -17.5350   -1.4585   59.5787 H       1  ZINC000543429378    0.0600
     43 H43       -16.8359   -3.0107   60.0807 H       1  ZINC000543429378    0.0600
     44 H44       -15.5542   -0.2651   60.3306 H       1  ZINC000543429378    0.0600
     45 H45       -16.1645   -1.2813   61.6520 H       1  ZINC000543429378    0.0700
     46 H46       -13.6719   -1.4074   61.4360 H       1  ZINC000543429378    0.0700
     47 H47       -14.4440   -2.9923   61.1564 H       1  ZINC000543429378    0.0700
     48 H48       -11.0137    1.5650   59.1841 H       1  ZINC000543429378    0.1600
     49 H49        -8.7003    0.8913   59.7892 H       1  ZINC000543429378    0.1400
     50 H50        -8.2083   -1.5213   60.1199 H       1  ZINC000543429378    0.1600
@<TRIPOS>BOND
     1     1     2    2
     2     2     3   am
     3     2    15    1
     4     3     4    1
     5     3    33    1
     6     4    14   ar
     7     4     5   ar
     8     5     6   ar
     9     5    34    1
    10     6     7   ar
    11     6    35    1
    12     7     8   ar
    13     7    36    1
    14     8     9    1
    15     8    14   ar
    16     9    10    1
    17    10    11    1
    18    10    12    1
    19    10    13    1
    20    14    37    1
    21    15    16    1
    22    15    26    1
    23    15    17    1
    24    17    18    1
    25    17    38    1
    26    17    39    1
    27    18    19    1
    28    18    24    1
    29    18    20    1
    30    20    21    1
    31    20    40    1
    32    20    41    1
    33    21    22    1
    34    21    42    1
    35    21    43    1
    36    22    23    1
    37    22    44    1
    38    22    45    1
    39    23    24    1
    40    23    46    1
    41    23    47    1
    42    24    25    1
    43    24    26    1
    44    26    27    1
    45    27    32   ar
    46    27    28   ar
    47    28    29   ar
    48    29    30   ar
    49    29    48    1
    50    30    31   ar
    51    30    49    1
    52    31    32   ar
    53    31    50    1
@<TRIPOS>SUBSTRUCTURE
     1 ZINC000543429378        1 TEMP              0 ****  ****    0 ROOT


##########                                Name:    ZINC001318556452
##########                DOCK_Rotatable_Bonds:                   4
##########                         Heavy_Atoms:                  26
##########                    Molecular_Weight:             368.456
##########                DOCK_Rotatable_Bonds:                   4
##########                       Formal_Charge:          -0.0200005
##########                     HBond_Acceptors:                   6
##########                        HBond_Donors:                   1
##########                         Heavy_Atoms:                  26
##########                          Grid_Score:          -27.893976
##########                     Grid_vdw_energy:          -27.574726
##########                      Grid_es_energy:           -0.319250
##########           Internal_energy_repulsive:           33.323620

@<TRIPOS>MOLECULE
ZINC001318556452
 46 48 1 0 0
SMALL
USER_CHARGES


@<TRIPOS>ATOM
      1 C1         -4.9092    2.9224   52.3454 C.3     1  ZINC001318556452   -0.1300
      2 C2         -3.6160    3.1290   53.0910 C.ar    1  ZINC001318556452   -0.1000
      3 C3         -3.6309    3.6503   54.3695 C.ar    1  ZINC001318556452   -0.0500
      4 C4         -4.9415    4.0130   55.0191 C.3     1  ZINC001318556452   -0.4100
      5 S5         -4.8030    3.8076   56.8161 S.o     1  ZINC001318556452    1.2500
      6 C6         -6.4498    4.2835   57.4094 C.3     1  ZINC001318556452   -0.4900
      7 O7         -3.8357    4.7166   57.3236 O.2     1  ZINC001318556452   -0.8400
      8 C8         -2.4446    3.8394   55.0549 C.ar    1  ZINC001318556452   -0.1200
      9 C9         -1.2399    3.5083   54.4624 C.ar    1  ZINC001318556452   -0.1000
     10 C10        -1.2177    2.9873   53.1833 C.ar    1  ZINC001318556452   -0.1200
     11 C11        -2.4077    2.7900   52.4948 C.ar    1  ZINC001318556452    0.1400
     12 N12        -2.3889    2.2625   51.2004 N.am    1  ZINC001318556452   -0.6600
     13 C13        -1.7676    2.9316   50.2090 C.2     1  ZINC001318556452    0.5600
     14 O14        -1.2237    3.9932   50.4404 O.2     1  ZINC001318556452   -0.5000
     15 C15        -1.7477    2.3721   48.8361 C.2     1  ZINC001318556452   -0.0300
     16 C16        -2.4703    2.9548   47.8343 C.2     1  ZINC001318556452   -0.1600
     17 C17        -2.4299    2.3804   46.4916 C.2     1  ZINC001318556452    0.5300
     18 O18        -3.0743    2.8995   45.5975 O.2     1  ZINC001318556452   -0.5200
     19 N19        -1.6921    1.2881   46.2278 N.am    1  ZINC001318556452   -0.5200
     20 C20        -1.6773    0.7433   44.8679 C.3     1  ZINC001318556452    0.0600
     21 C21        -0.9487    0.6705   47.2108 C.ar    1  ZINC001318556452    0.1800
     22 C22        -0.1911   -0.4600   46.9167 C.ar    1  ZINC001318556452   -0.1700
     23 C23         0.5473   -1.0675   47.9089 C.ar    1  ZINC001318556452   -0.0600
     24 C24         0.5441   -0.5631   49.2020 C.ar    1  ZINC001318556452   -0.1500
     25 C25        -0.1920    0.5450   49.5130 C.ar    1  ZINC001318556452   -0.0600
     26 C26        -0.9442    1.1809   48.5212 C.ar    1  ZINC001318556452   -0.1100
     27 H27        -5.2945    1.9248   52.5558 H       1  ZINC001318556452    0.0800
     28 H28        -5.6367    3.6680   52.6663 H       1  ZINC001318556452    0.0800
     29 H29        -4.7318    3.0251   51.2748 H       1  ZINC001318556452    0.0700
     30 H30        -5.1858    5.0503   54.7898 H       1  ZINC001318556452    0.1000
     31 H31        -5.7282    3.3617   54.6385 H       1  ZINC001318556452    0.1300
     32 H32        -7.1989    3.6254   56.9690 H       1  ZINC001318556452    0.1100
     33 H33        -6.4837    4.1971   58.4955 H       1  ZINC001318556452    0.1100
     34 H34        -6.6564    5.3140   57.1202 H       1  ZINC001318556452    0.0800
     35 H35        -2.4590    4.2469   56.0550 H       1  ZINC001318556452    0.1200
     36 H36        -0.3153    3.6575   55.0002 H       1  ZINC001318556452    0.1300
     37 H37        -0.2764    2.7293   52.7210 H       1  ZINC001318556452    0.1500
     38 H38        -2.8231    1.4150   51.0157 H       1  ZINC001318556452    0.4100
     39 H39        -3.0671    3.8327   48.0332 H       1  ZINC001318556452    0.1600
     40 H40        -2.3148    1.3512   44.2260 H       1  ZINC001318556452    0.1000
     41 H41        -0.6576    0.7547   44.4830 H       1  ZINC001318556452    0.0800
     42 H42        -2.0484   -0.2815   44.8831 H       1  ZINC001318556452    0.0800
     43 H43        -0.1824   -0.8601   45.9135 H       1  ZINC001318556452    0.1400
     44 H44         1.1339   -1.9445   47.6783 H       1  ZINC001318556452    0.1300
     45 H45         1.1279   -1.0509   49.9687 H       1  ZINC001318556452    0.1300
     46 H46        -0.1893    0.9313   50.5216 H       1  ZINC001318556452    0.1700
@<TRIPOS>BOND
     1     1     2    1
     2     1    27    1
     3     1    28    1
     4     1    29    1
     5     2    11   ar
     6     2     3   ar
     7     3     4    1
     8     3     8   ar
     9     4     5    1
    10     4    30    1
    11     4    31    1
    12     5     6    1
    13     5     7    2
    14     6    32    1
    15     6    33    1
    16     6    34    1
    17     8     9   ar
    18     8    35    1
    19     9    10   ar
    20     9    36    1
    21    10    11   ar
    22    10    37    1
    23    11    12    1
    24    12    13   am
    25    12    38    1
    26    13    14    2
    27    13    15    1
    28    15    26    1
    29    15    16    2
    30    16    17    1
    31    16    39    1
    32    17    18    2
    33    17    19   am
    34    19    20    1
    35    19    21    1
    36    20    40    1
    37    20    41    1
    38    20    42    1
    39    21    26   ar
    40    21    22   ar
    41    22    23   ar
    42    22    43    1
    43    23    24   ar
    44    23    44    1
    45    24    25   ar
    46    24    45    1
    47    25    26   ar
    48    25    46    1
@<TRIPOS>SUBSTRUCTURE
     1 ZINC001318556452        1 TEMP              0 ****  ****    0 ROOT


##########                                Name:    ZINC000337709254
##########                DOCK_Rotatable_Bonds:                   7
##########                         Heavy_Atoms:                  22
##########                    Molecular_Weight:              329.42
##########                DOCK_Rotatable_Bonds:                   7
##########                       Formal_Charge:           0.0300004
##########                     HBond_Acceptors:                   8
##########                        HBond_Donors:                   2
##########                         Heavy_Atoms:                  22
##########                          Grid_Score:          -27.888781
##########                     Grid_vdw_energy:          -25.375645
##########                      Grid_es_energy:           -2.513136
##########           Internal_energy_repulsive:           11.509521

@<TRIPOS>MOLECULE
ZINC000337709254
 45 46 1 0 0
SMALL
USER_CHARGES


@<TRIPOS>ATOM
      1 C1         -8.4158   -0.6726   61.7907 C.3     1  ZINC000337709254   -0.6700
      2 S2         -8.5627   -1.2914   60.0918 S.o2    1  ZINC000337709254    2.6100
      3 O3         -7.3622   -1.0544   59.3693 O.2     1  ZINC000337709254   -0.9500
      4 O4         -9.1858   -2.5685   60.0785 O.2     1  ZINC000337709254   -0.9500
      5 N5         -9.6720   -0.2883   59.3811 N.am    1  ZINC000337709254   -1.1200
      6 C6        -10.0497   -0.4896   57.9800 C.3     1  ZINC000337709254    0.1200
      7 C7        -11.2358   -1.4533   57.9050 C.3     1  ZINC000337709254   -0.1100
      8 H8        -11.0819   -2.2991   58.5751 H       1  ZINC000337709254    0.1100
      9 C9        -12.5541   -0.7186   58.2534 C.3     1  ZINC000337709254   -0.1200
     10 C10       -13.6274   -1.5962   57.5628 C.3     1  ZINC000337709254   -0.1200
     11 C11       -12.9660   -2.0306   56.2386 C.3     1  ZINC000337709254   -0.1400
     12 C12       -11.4432   -1.9425   56.4567 C.3     1  ZINC000337709254    0.1500
     13 H13       -10.9893   -2.9243   56.3219 H       1  ZINC000337709254    0.1000
     14 N14       -10.8561   -0.9852   55.5160 N.am    1  ZINC000337709254   -0.7200
     15 C15       -10.0040   -1.4126   54.5634 C.2     1  ZINC000337709254    0.5300
     16 O16        -9.7243   -2.5902   54.4839 O.2     1  ZINC000337709254   -0.5100
     17 C17        -9.3986   -0.4276   53.5968 C.3     1  ZINC000337709254    0.0200
     18 C18       -10.4262    0.5340   53.1654 C.1     1  ZINC000337709254    0.2000
     19 N19       -11.2193    1.2761   52.8325 N.1     1  ZINC000337709254   -0.3900
     20 C20        -8.2491    0.3199   54.2797 C.3     1  ZINC000337709254   -0.1500
     21 C21        -7.5901    1.2608   53.2678 C.3     1  ZINC000337709254    0.0600
     22 O22        -7.1324    0.5052   52.1445 O.3     1  ZINC000337709254   -0.3700
     23 C23        -8.1705   -0.1774   51.4383 C.3     1  ZINC000337709254    0.0600
     24 C24        -8.8529   -1.1761   52.3769 C.3     1  ZINC000337709254   -0.1300
     25 H25        -8.0751    0.3626   61.7721 H       1  ZINC000337709254    0.1300
     26 H26        -9.3871   -0.7267   62.2823 H       1  ZINC000337709254    0.1300
     27 H27        -7.6969   -1.2819   62.3385 H       1  ZINC000337709254    0.1300
     28 H28       -10.0716    0.4327   59.8923 H       1  ZINC000337709254    0.4200
     29 H29       -10.3301    0.4665   57.5382 H       1  ZINC000337709254    0.0600
     30 H30        -9.2056   -0.9091   57.4328 H       1  ZINC000337709254    0.0900
     31 H31       -12.7097   -0.6951   59.3320 H       1  ZINC000337709254    0.0800
     32 H32       -12.5552    0.2900   57.8398 H       1  ZINC000337709254    0.0700
     33 H33       -13.8609   -2.4665   58.1762 H       1  ZINC000337709254    0.0700
     34 H34       -14.5277   -1.0141   57.3666 H       1  ZINC000337709254    0.0700
     35 H35       -13.2483   -3.0558   55.9989 H       1  ZINC000337709254    0.0800
     36 H36       -13.2686   -1.3616   55.4331 H       1  ZINC000337709254    0.0700
     37 H37       -11.0806   -0.0436   55.5788 H       1  ZINC000337709254    0.4000
     38 H38        -8.6381    0.8998   55.1166 H       1  ZINC000337709254    0.0900
     39 H39        -7.5132   -0.3973   54.6431 H       1  ZINC000337709254    0.1100
     40 H40        -8.3159    2.0029   52.9351 H       1  ZINC000337709254    0.0500
     41 H41        -6.7443    1.7640   53.7363 H       1  ZINC000337709254    0.1100
     42 H42        -8.9039    0.5459   51.0818 H       1  ZINC000337709254    0.0500
     43 H43        -7.7428   -0.7104   50.5892 H       1  ZINC000337709254    0.1100
     44 H44        -8.1291   -1.9235   52.7018 H       1  ZINC000337709254    0.1100
     45 H45        -9.6736   -1.6660   51.8530 H       1  ZINC000337709254    0.0900
@<TRIPOS>BOND
     1     1     2    1
     2     1    25    1
     3     1    26    1
     4     1    27    1
     5     2     3    2
     6     2     4    2
     7     2     5   am
     8     5     6    1
     9     5    28    1
    10     6     7    1
    11     6    29    1
    12     6    30    1
    13     7     8    1
    14     7    12    1
    15     7     9    1
    16     9    10    1
    17     9    31    1
    18     9    32    1
    19    10    11    1
    20    10    33    1
    21    10    34    1
    22    11    12    1
    23    11    35    1
    24    11    36    1
    25    12    13    1
    26    12    14    1
    27    14    15   am
    28    14    37    1
    29    15    16    2
    30    15    17    1
    31    17    24    1
    32    17    18    1
    33    17    20    1
    34    18    19    3
    35    20    21    1
    36    20    38    1
    37    20    39    1
    38    21    22    1
    39    21    40    1
    40    21    41    1
    41    22    23    1
    42    23    24    1
    43    23    42    1
    44    23    43    1
    45    24    44    1
    46    24    45    1
@<TRIPOS>SUBSTRUCTURE
     1 ZINC000337709254        1 TEMP              0 ****  ****    0 ROOT


##########                                Name:    ZINC000521663393
##########                DOCK_Rotatable_Bonds:                   5
##########                         Heavy_Atoms:                  27
##########                    Molecular_Weight:              386.49
##########                DOCK_Rotatable_Bonds:                   5
##########                       Formal_Charge:               -0.02
##########                     HBond_Acceptors:                   6
##########                        HBond_Donors:                   1
##########                         Heavy_Atoms:                  27
##########                          Grid_Score:          -27.821630
##########                     Grid_vdw_energy:          -27.533752
##########                      Grid_es_energy:           -0.287878
##########           Internal_energy_repulsive:           23.091465

@<TRIPOS>MOLECULE
ZINC000521663393
 50 53 1 0 0
SMALL
USER_CHARGES


@<TRIPOS>ATOM
      1 C1         -8.1037   -1.8076   59.8868 C.3     1  ZINC000521663393   -0.1500
      2 C2         -9.4791   -1.1680   59.6862 C.3     1  ZINC000521663393    0.0800
      3 H3         -9.4305   -0.0916   59.8507 H       1  ZINC000521663393    0.0900
      4 O4        -10.4533   -1.7724   60.5539 O.3     1  ZINC000521663393   -0.2900
      5 C5        -11.6600   -1.7982   59.9243 C.ar    1  ZINC000521663393    0.1400
      6 C6        -12.9393   -1.9458   60.4530 C.ar    1  ZINC000521663393   -0.1800
      7 C7        -14.0403   -1.9536   59.6179 C.ar    1  ZINC000521663393    0.1400
      8 F8        -15.2784   -2.0979   60.1389 F       1  ZINC000521663393   -0.1300
      9 C9        -13.8802   -1.8138   58.2496 C.ar    1  ZINC000521663393   -0.1800
     10 C10       -12.6116   -1.6620   57.7188 C.ar    1  ZINC000521663393   -0.0200
     11 C11       -11.5139   -1.6508   58.5504 C.ar    1  ZINC000521663393   -0.2000
     12 C12       -10.0291   -1.4825   58.2749 C.3     1  ZINC000521663393    0.1700
     13 H13        -9.5984   -2.4046   57.8850 H       1  ZINC000521663393    0.1200
     14 N14        -9.7905   -0.3668   57.3559 N.am    1  ZINC000521663393   -0.7200
     15 C15        -9.7302   -0.5886   56.0279 C.2     1  ZINC000521663393    0.5300
     16 O16        -9.8750   -1.7117   55.5935 O.2     1  ZINC000521663393   -0.5000
     17 C17        -9.4829    0.5588   55.0827 C.3     1  ZINC000521663393    0.1200
     18 H18       -10.4337    1.0176   54.8116 H       1  ZINC000521663393    0.0700
     19 C19        -8.6046    1.5827   55.7547 C.ar    1  ZINC000521663393   -0.0900
     20 C20        -9.0564    2.8785   55.9211 C.ar    1  ZINC000521663393   -0.0900
     21 C21        -8.2508    3.8175   56.5374 C.ar    1  ZINC000521663393   -0.1200
     22 C22        -6.9935    3.4608   56.9877 C.ar    1  ZINC000521663393   -0.1100
     23 C23        -6.5420    2.1648   56.8221 C.ar    1  ZINC000521663393   -0.1200
     24 C24        -7.3493    1.2246   56.2096 C.ar    1  ZINC000521663393   -0.1100
     25 N25        -8.8165    0.0610   53.8719 N.3     1  ZINC000521663393   -0.5300
     26 C26        -8.0399    1.1218   53.2264 C.3     1  ZINC000521663393    0.0500
     27 C27        -7.0247    0.5073   52.2566 C.3     1  ZINC000521663393   -0.0700
     28 S28        -7.9333   -0.3945   50.9645 S.3     1  ZINC000521663393   -0.2700
     29 C29        -9.0420   -1.4472   51.9501 C.3     1  ZINC000521663393   -0.0700
     30 C30        -9.7794   -0.5636   52.9620 C.3     1  ZINC000521663393    0.0600
     31 H31        -7.3982   -1.3837   59.1722 H       1  ZINC000521663393    0.0800
     32 H32        -7.7561   -1.6111   60.9010 H       1  ZINC000521663393    0.0800
     33 H33        -8.1772   -2.8838   59.7301 H       1  ZINC000521663393    0.0700
     34 H34       -13.0717   -2.0550   61.5193 H       1  ZINC000521663393    0.1400
     35 H35       -14.7424   -1.8234   57.5992 H       1  ZINC000521663393    0.1400
     36 H36       -12.4821   -1.5523   56.6523 H       1  ZINC000521663393    0.1300
     37 H37        -9.6758    0.5316   57.7032 H       1  ZINC000521663393    0.4000
     38 H38       -10.0387    3.1571   55.5693 H       1  ZINC000521663393    0.1300
     39 H39        -8.6035    4.8301   56.6668 H       1  ZINC000521663393    0.1300
     40 H40        -6.3638    4.1947   57.4686 H       1  ZINC000521663393    0.1200
     41 H41        -5.5595    1.8861   57.1735 H       1  ZINC000521663393    0.1300
     42 H42        -6.9966    0.2120   56.0802 H       1  ZINC000521663393    0.1200
     43 H43        -8.7128    1.7802   52.6770 H       1  ZINC000521663393    0.0500
     44 H44        -7.5120    1.6980   53.9863 H       1  ZINC000521663393    0.1000
     45 H45        -6.4285    1.2979   51.8012 H       1  ZINC000521663393    0.1100
     46 H46        -6.3742   -0.1815   52.7956 H       1  ZINC000521663393    0.0900
     47 H47        -9.7639   -1.9338   51.2942 H       1  ZINC000521663393    0.1100
     48 H48        -8.4577   -2.2002   52.4789 H       1  ZINC000521663393    0.1000
     49 H49       -10.4764   -1.1743   53.5358 H       1  ZINC000521663393    0.0800
     50 H50       -10.3315    0.2118   52.4310 H       1  ZINC000521663393    0.0500
@<TRIPOS>BOND
     1     1     2    1
     2     1    31    1
     3     1    32    1
     4     1    33    1
     5     2     3    1
     6     2    12    1
     7     2     4    1
     8     4     5    1
     9     5    11   ar
    10     5     6   ar
    11     6     7   ar
    12     6    34    1
    13     7     8    1
    14     7     9   ar
    15     9    10   ar
    16     9    35    1
    17    10    11   ar
    18    10    36    1
    19    11    12    1
    20    12    13    1
    21    12    14    1
    22    14    15   am
    23    14    37    1
    24    15    16    2
    25    15    17    1
    26    17    18    1
    27    17    19    1
    28    17    25    1
    29    19    24   ar
    30    19    20   ar
    31    20    21   ar
    32    20    38    1
    33    21    22   ar
    34    21    39    1
    35    22    23   ar
    36    22    40    1
    37    23    24   ar
    38    23    41    1
    39    24    42    1
    40    25    30    1
    41    25    26    1
    42    26    27    1
    43    26    43    1
    44    26    44    1
    45    27    28    1
    46    27    45    1
    47    27    46    1
    48    28    29    1
    49    29    30    1
    50    29    47    1
    51    29    48    1
    52    30    49    1
    53    30    50    1
@<TRIPOS>SUBSTRUCTURE
     1 ZINC000521663393        1 TEMP              0 ****  ****    0 ROOT


##########                                Name:    ZINC000588570917
##########                DOCK_Rotatable_Bonds:                   7
##########                         Heavy_Atoms:                  25
##########                    Molecular_Weight:             366.481
##########                DOCK_Rotatable_Bonds:                   7
##########                       Formal_Charge:          -0.0100006
##########                     HBond_Acceptors:                   7
##########                        HBond_Donors:                   1
##########                         Heavy_Atoms:                  25
##########                          Grid_Score:          -27.815220
##########                     Grid_vdw_energy:          -27.424887
##########                      Grid_es_energy:           -0.390333
##########           Internal_energy_repulsive:           16.654875

@<TRIPOS>MOLECULE
ZINC000588570917
 51 52 1 0 0
SMALL
USER_CHARGES


@<TRIPOS>ATOM
      1 C1         -9.4457   -1.4952   53.5728 C.3     1  ZINC000588570917   -0.1300
      2 C2         -8.1786   -1.1301   52.8434 C.2     1  ZINC000588570917   -0.0500
      3 C3         -7.6126    0.0564   53.0464 C.2     1  ZINC000588570917   -0.2000
      4 C4         -8.2394    1.0363   54.0044 C.3     1  ZINC000588570917   -0.0900
      5 C5         -7.6723    0.8117   55.4075 C.3     1  ZINC000588570917   -0.1500
      6 C6         -6.3750    0.4119   52.3359 C.2     1  ZINC000588570917    0.5600
      7 O7         -5.7754   -0.4330   51.6988 O.2     1  ZINC000588570917   -0.5100
      8 N8         -5.9053    1.6739   52.3908 N.am    1  ZINC000588570917   -0.6800
      9 C9         -4.7286    2.0121   51.7152 C.ar    1  ZINC000588570917    0.2100
     10 C10        -4.6401    1.8359   50.3404 C.ar    1  ZINC000588570917   -0.1700
     11 C11        -3.4767    2.1714   49.6762 C.ar    1  ZINC000588570917    0.0000
     12 C12        -2.4005    2.6823   50.3784 C.ar    1  ZINC000588570917   -0.7000
     13 S13        -0.9180    3.1091   49.5271 S.o2    1  ZINC000588570917    2.6900
     14 O14        -1.3171    3.7115   48.3036 O.2     1  ZINC000588570917   -0.9500
     15 O15        -0.0826    3.7572   50.4764 O.2     1  ZINC000588570917   -0.9500
     16 N16        -0.1585    1.6934   49.1254 N.am    1  ZINC000588570917   -1.0000
     17 C17         0.1208    1.3559   47.7206 C.3     1  ZINC000588570917    0.0900
     18 C18         1.5981    0.9641   47.6020 C.3     1  ZINC000588570917    0.0700
     19 H19         2.2225    1.8387   47.7844 H       1  ZINC000588570917    0.0700
     20 C20         1.8725    0.4245   46.1968 C.3     1  ZINC000588570917   -0.1500
     21 O21         1.8964   -0.0457   48.5689 O.3     1  ZINC000588570917   -0.3700
     22 C22         1.7282    0.3746   49.9250 C.3     1  ZINC000588570917    0.0800
     23 H23         2.0169   -0.4348   50.5955 H       1  ZINC000588570917    0.1200
     24 C24         2.6063    1.5985   50.1933 C.3     1  ZINC000588570917   -0.1900
     25 C25         0.2626    0.7387   50.1629 C.3     1  ZINC000588570917    0.0900
     26 C26        -2.4854    2.8594   51.7472 C.ar    1  ZINC000588570917    0.0000
     27 C27        -3.6477    2.5305   52.4168 C.ar    1  ZINC000588570917   -0.1400
     28 H28        -9.7573   -2.4979   53.2803 H       1  ZINC000588570917    0.0600
     29 H29        -9.2666   -1.4695   54.6476 H       1  ZINC000588570917    0.0800
     30 H30       -10.2300   -0.7823   53.3179 H       1  ZINC000588570917    0.0800
     31 H31        -7.7300   -1.8318   52.1557 H       1  ZINC000588570917    0.1300
     32 H32        -8.0172    2.0532   53.6812 H       1  ZINC000588570917    0.0700
     33 H33        -9.3192    0.8881   54.0210 H       1  ZINC000588570917    0.0800
     34 H34        -6.5925    0.9599   55.3909 H       1  ZINC000588570917    0.0500
     35 H35        -8.1256    1.5204   56.1005 H       1  ZINC000588570917    0.0600
     36 H36        -7.8945   -0.2053   55.7307 H       1  ZINC000588570917    0.0600
     37 H37        -6.3835    2.3477   52.8988 H       1  ZINC000588570917    0.4100
     38 H38        -5.4801    1.4366   49.7913 H       1  ZINC000588570917    0.1400
     39 H39        -3.4071    2.0344   48.6071 H       1  ZINC000588570917    0.1400
     40 H40        -0.5066    0.5195   47.4122 H       1  ZINC000588570917    0.0900
     41 H41        -0.0817    2.2201   47.0880 H       1  ZINC000588570917    0.1000
     42 H42         1.6409    1.1941   45.4604 H       1  ZINC000588570917    0.0700
     43 H43         2.9231    0.1462   46.1131 H       1  ZINC000588570917    0.0700
     44 H44         1.2491   -0.4511   46.0156 H       1  ZINC000588570917    0.0700
     45 H45         2.3156    2.4080   49.5237 H       1  ZINC000588570917    0.0600
     46 H46         2.4774    1.9183   51.2273 H       1  ZINC000588570917    0.0700
     47 H47         3.6511    1.3411   50.0201 H       1  ZINC000588570917    0.0700
     48 H48         0.1523    1.1924   51.1479 H       1  ZINC000588570917    0.1000
     49 H49        -0.3534   -0.1584   50.1004 H       1  ZINC000588570917    0.0900
     50 H50        -1.6432    3.2586   52.2928 H       1  ZINC000588570917    0.1400
     51 H51        -3.7135    2.6694   53.4858 H       1  ZINC000588570917    0.1500
@<TRIPOS>BOND
     1     1     2    1
     2     1    28    1
     3     1    29    1
     4     1    30    1
     5     2     3    2
     6     2    31    1
     7     3     4    1
     8     3     6    1
     9     4     5    1
    10     4    32    1
    11     4    33    1
    12     5    34    1
    13     5    35    1
    14     5    36    1
    15     6     7    2
    16     6     8   am
    17     8     9    1
    18     8    37    1
    19     9    27   ar
    20     9    10   ar
    21    10    11   ar
    22    10    38    1
    23    11    12   ar
    24    11    39    1
    25    12    13    1
    26    12    26   ar
    27    13    14    2
    28    13    15    2
    29    13    16   am
    30    16    25    1
    31    16    17    1
    32    17    18    1
    33    17    40    1
    34    17    41    1
    35    18    19    1
    36    18    20    1
    37    18    21    1
    38    20    42    1
    39    20    43    1
    40    20    44    1
    41    21    22    1
    42    22    23    1
    43    22    24    1
    44    22    25    1
    45    24    45    1
    46    24    46    1
    47    24    47    1
    48    25    48    1
    49    25    49    1
    50    26    27   ar
    51    26    50    1
    52    27    51    1
@<TRIPOS>SUBSTRUCTURE
     1 ZINC000588570917        1 TEMP              0 ****  ****    0 ROOT


##########                                Name:    ZINC001173835973
##########                DOCK_Rotatable_Bonds:                   4
##########                         Heavy_Atoms:                  26
##########                    Molecular_Weight:             343.388
##########                DOCK_Rotatable_Bonds:                   4
##########                       Formal_Charge:           -0.010001
##########                     HBond_Acceptors:                   6
##########                        HBond_Donors:                   4
##########                         Heavy_Atoms:                  26
##########                          Grid_Score:          -27.802629
##########                     Grid_vdw_energy:          -27.017056
##########                      Grid_es_energy:           -0.785575
##########           Internal_energy_repulsive:            6.971665

@<TRIPOS>MOLECULE
ZINC001173835973
 43 46 1 0 0
SMALL
USER_CHARGES


@<TRIPOS>ATOM
      1 C1         -6.3966   -0.5198   52.0420 C.3     1  ZINC001173835973   -0.1700
      2 C2         -7.7483   -0.7937   52.6496 C.2     1  ZINC001173835973    0.5100
      3 O3         -8.3532   -1.8023   52.3535 O.2     1  ZINC001173835973   -0.5200
      4 N4         -8.2848    0.0822   53.5222 N.am    1  ZINC001173835973   -0.6800
      5 C5         -9.5398   -0.1719   54.0863 C.ar    1  ZINC001173835973    0.1800
      6 C6        -10.6022    0.6868   53.8343 C.ar    1  ZINC001173835973   -0.1900
      7 C7        -11.8422    0.4368   54.3910 C.ar    1  ZINC001173835973   -0.0600
      8 C8        -12.0300   -0.6675   55.1990 C.ar    1  ZINC001173835973   -0.1900
      9 C9        -10.9710   -1.5310   55.4552 C.ar    1  ZINC001173835973    0.2200
     10 N10       -11.1612   -2.6472   56.2722 N.pl3   1  ZINC001173835973   -0.6900
     11 C11       -11.7516   -2.4994   57.5328 C.ar    1  ZINC001173835973    0.0400
     12 C12       -13.0852   -2.7391   57.6877 C.ar    1  ZINC001173835973    0.2400
     13 N13       -13.8529   -3.1309   56.5852 N.pl3   1  ZINC001173835973   -0.8600
     14 C14       -13.7174   -2.5906   58.9940 C.ar    1  ZINC001173835973   -0.1100
     15 C15       -15.0901   -2.8365   59.1599 C.ar    1  ZINC001173835973   -0.0600
     16 C16       -15.6300   -2.6819   60.4081 C.ar    1  ZINC001173835973   -0.1700
     17 C17       -14.8201   -2.2907   61.4676 C.ar    1  ZINC001173835973    0.1200
     18 N18       -13.5369   -2.0627   61.3041 N.ar    1  ZINC001173835973   -0.4400
     19 C19       -12.9540   -2.1960   60.1149 C.ar    1  ZINC001173835973    0.1900
     20 C20       -11.5188   -1.9381   59.9482 C.ar    1  ZINC001173835973    0.1300
     21 N21       -10.7688   -1.5648   60.9826 N.ar    1  ZINC001173835973   -0.4400
     22 C22        -9.4832   -1.3308   60.8477 C.ar    1  ZINC001173835973    0.1000
     23 C23        -8.8453   -1.4613   59.6201 C.ar    1  ZINC001173835973   -0.1500
     24 C24        -9.5620   -1.8422   58.5178 C.ar    1  ZINC001173835973   -0.0700
     25 C25       -10.9344   -2.0958   58.6721 C.ar    1  ZINC001173835973   -0.0400
     26 C26        -9.7257   -1.2852   54.8933 C.ar    1  ZINC001173835973   -0.1900
     27 H27        -6.1305   -1.3329   51.3666 H       1  ZINC001173835973    0.1000
     28 H28        -6.4310    0.4174   51.4867 H       1  ZINC001173835973    0.0900
     29 H29        -5.6508   -0.4462   52.8334 H       1  ZINC001173835973    0.0900
     30 H30        -7.8010    0.8889   53.7591 H       1  ZINC001173835973    0.4100
     31 H31       -10.4589    1.5512   53.2029 H       1  ZINC001173835973    0.1200
     32 H32       -12.6662    1.1066   54.1939 H       1  ZINC001173835973    0.1200
     33 H33       -13.0002   -0.8601   55.6324 H       1  ZINC001173835973    0.1200
     34 H34       -10.8844   -3.5251   55.9663 H       1  ZINC001173835973    0.4000
     35 H35       -13.4235   -3.3095   55.7340 H       1  ZINC001173835973    0.4100
     36 H36       -14.8145   -3.2240   56.6724 H       1  ZINC001173835973    0.4000
     37 H37       -15.7037   -3.1395   58.3243 H       1  ZINC001173835973    0.1400
     38 H38       -16.6825   -2.8629   60.5690 H       1  ZINC001173835973    0.1400
     39 H39       -15.2562   -2.1713   62.4484 H       1  ZINC001173835973    0.1700
     40 H40        -8.9087   -1.0294   61.7112 H       1  ZINC001173835973    0.1600
     41 H41        -7.7871   -1.2626   59.5357 H       1  ZINC001173835973    0.1400
     42 H42        -9.0835   -1.9486   57.5554 H       1  ZINC001173835973    0.1400
     43 H43        -8.9014   -1.9545   55.0904 H       1  ZINC001173835973    0.1400
@<TRIPOS>BOND
     1     1     2    1
     2     1    27    1
     3     1    28    1
     4     1    29    1
     5     2     3    2
     6     2     4   am
     7     4     5    1
     8     4    30    1
     9     5    26   ar
    10     5     6   ar
    11     6     7   ar
    12     6    31    1
    13     7     8   ar
    14     7    32    1
    15     8     9   ar
    16     8    33    1
    17     9    10    1
    18     9    26   ar
    19    10    11    1
    20    10    34    1
    21    11    25   ar
    22    11    12   ar
    23    12    13    1
    24    12    14   ar
    25    13    35    1
    26    13    36    1
    27    14    19   ar
    28    14    15   ar
    29    15    16   ar
    30    15    37    1
    31    16    17   ar
    32    16    38    1
    33    17    18   ar
    34    17    39    1
    35    18    19   ar
    36    19    20   ar
    37    20    25   ar
    38    20    21   ar
    39    21    22   ar
    40    22    23   ar
    41    22    40    1
    42    23    24   ar
    43    23    41    1
    44    24    25   ar
    45    24    42    1
    46    26    43    1
@<TRIPOS>SUBSTRUCTURE
     1 ZINC001173835973        1 TEMP              0 ****  ****    0 ROOT


##########                                Name:    ZINC000416583757
##########                DOCK_Rotatable_Bonds:                   7
##########                         Heavy_Atoms:                  20
##########                    Molecular_Weight:             380.693
##########                DOCK_Rotatable_Bonds:                   7
##########                       Formal_Charge:         1.04308e-07
##########                     HBond_Acceptors:                   7
##########                        HBond_Donors:                   1
##########                         Heavy_Atoms:                  20
##########                          Grid_Score:          -27.790030
##########                     Grid_vdw_energy:          -27.136118
##########                      Grid_es_energy:           -0.653911
##########           Internal_energy_repulsive:            7.742858

@<TRIPOS>MOLECULE
ZINC000416583757
 35 35 1 0 0
SMALL
USER_CHARGES


@<TRIPOS>ATOM
      1 C1          1.9943    0.8839   50.1392 C.3     1  ZINC000416583757   -0.1500
      2 C2          0.9116    0.9561   49.0607 C.3     1  ZINC000416583757   -0.0200
      3 H3          0.6882    1.9998   48.8395 H       1  ZINC000416583757    0.1200
      4 C4          1.3900    0.2872   47.8397 C.1     1  ZINC000416583757    0.2100
      5 N5          1.7592   -0.2290   46.8976 N.1     1  ZINC000416583757   -0.4200
      6 C6         -0.3546    0.2585   49.5616 C.3     1  ZINC000416583757    0.1300
      7 N7         -1.4573    0.5233   48.6341 N.am    1  ZINC000416583757   -1.0100
      8 C8         -1.7087   -0.3888   47.5156 C.3     1  ZINC000416583757    0.0800
      9 S9         -2.4193    1.8539   48.8498 S.o2    1  ZINC000416583757    2.7800
     10 O10        -1.5463    2.9727   48.9225 O.2     1  ZINC000416583757   -0.9700
     11 O11        -3.4695    1.7481   47.8985 O.2     1  ZINC000416583757   -0.9700
     12 N12        -3.1239    1.7127   50.3418 N.am    1  ZINC000416583757   -1.1300
     13 C13        -4.0399    2.7510   50.8204 C.3     1  ZINC000416583757    0.1600
     14 C14        -5.0646    2.1334   51.7367 C.ar    1  ZINC000416583757   -0.0800
     15 C15        -5.8212    1.0610   51.3037 C.ar    1  ZINC000416583757   -0.0800
     16 C16        -6.7619    0.4933   52.1450 C.ar    1  ZINC000416583757   -0.0300
     17 Cl17       -7.7119   -0.8542   51.6013 Cl      1  ZINC000416583757   -0.0500
     18 C18        -6.9447    0.9993   53.4191 C.ar    1  ZINC000416583757   -0.0700
     19 C19        -6.1870    2.0726   53.8518 C.ar    1  ZINC000416583757   -0.0800
     20 Br20       -6.4363    2.7651   55.5937 Br      1  ZINC000416583757   -0.0300
     21 C21        -5.2434    2.6360   53.0120 C.ar    1  ZINC000416583757   -0.0700
     22 H22         2.9316    1.2711   49.7397 H       1  ZINC000416583757    0.0700
     23 H23         1.6913    1.4817   50.9989 H       1  ZINC000416583757    0.0800
     24 H24         2.1315   -0.1526   50.4476 H       1  ZINC000416583757    0.0700
     25 H25        -0.1789   -0.8157   49.6199 H       1  ZINC000416583757    0.0900
     26 H26        -0.6120    0.6388   50.5501 H       1  ZINC000416583757    0.1000
     27 H27        -2.4027   -1.1680   47.8312 H       1  ZINC000416583757    0.0700
     28 H28        -2.1405    0.1670   46.6834 H       1  ZINC000416583757    0.0800
     29 H29        -0.7700   -0.8444   47.2001 H       1  ZINC000416583757    0.0800
     30 H30        -2.9302    0.9426   50.8987 H       1  ZINC000416583757    0.4200
     31 H31        -3.4769    3.5098   51.3639 H       1  ZINC000416583757    0.0800
     32 H32        -4.5433    3.2116   49.9703 H       1  ZINC000416583757    0.1000
     33 H33        -5.6785    0.6663   50.3087 H       1  ZINC000416583757    0.1500
     34 H34        -7.6790    0.5568   54.0760 H       1  ZINC000416583757    0.1500
     35 H35        -4.6518    3.4741   53.3499 H       1  ZINC000416583757    0.1400
@<TRIPOS>BOND
     1     1     2    1
     2     1    22    1
     3     1    23    1
     4     1    24    1
     5     2     3    1
     6     2     4    1
     7     2     6    1
     8     4     5    3
     9     6     7    1
    10     6    25    1
    11     6    26    1
    12     7     8    1
    13     7     9   am
    14     8    27    1
    15     8    28    1
    16     8    29    1
    17     9    10    2
    18     9    11    2
    19     9    12   am
    20    12    13    1
    21    12    30    1
    22    13    14    1
    23    13    31    1
    24    13    32    1
    25    14    21   ar
    26    14    15   ar
    27    15    16   ar
    28    15    33    1
    29    16    17    1
    30    16    18   ar
    31    18    19   ar
    32    18    34    1
    33    19    20    1
    34    19    21   ar
    35    21    35    1
@<TRIPOS>SUBSTRUCTURE
     1 ZINC000416583757        1 TEMP              0 ****  ****    0 ROOT


##########                                Name:    ZINC001002468398
##########                DOCK_Rotatable_Bonds:                   7
##########                         Heavy_Atoms:                  24
##########                    Molecular_Weight:             341.358
##########                DOCK_Rotatable_Bonds:                   7
##########                       Formal_Charge:           0.0100001
##########                     HBond_Acceptors:                   8
##########                        HBond_Donors:                   0
##########                         Heavy_Atoms:                  24
##########                          Grid_Score:          -27.784498
##########                     Grid_vdw_energy:          -28.016544
##########                      Grid_es_energy:            0.232046
##########           Internal_energy_repulsive:           19.217875

@<TRIPOS>MOLECULE
ZINC001002468398
 45 47 1 0 0
SMALL
USER_CHARGES


@<TRIPOS>ATOM
      1 C1         -5.1713    2.1699   52.1720 C.3     1  ZINC001002468398   -0.1400
      2 C2         -6.5378    1.8406   52.7764 C.3     1  ZINC001002468398   -0.0500
      3 C3         -7.0850    0.5934   52.1311 C.2     1  ZINC001002468398    0.0500
      4 C4         -7.9233   -0.3134   52.7030 C.2     1  ZINC001002468398   -0.0800
      5 C5         -8.4679   -0.2610   54.0719 C.2     1  ZINC001002468398    0.6000
      6 O6         -7.7511    0.0626   54.9995 O.2     1  ZINC001002468398   -0.5300
      7 N7         -9.7601   -0.5719   54.2954 N.am    1  ZINC001002468398   -0.6000
      8 C8        -10.6235   -0.9619   53.1780 C.3     1  ZINC001002468398    0.0900
      9 C9        -10.3013   -0.5199   55.6557 C.3     1  ZINC001002468398    0.1000
     10 C10       -10.0492   -1.8565   56.3563 C.3     1  ZINC001002468398    0.1300
     11 H11        -9.0248   -2.1821   56.1757 H       1  ZINC001002468398    0.0800
     12 C12       -11.0379   -2.9189   55.8316 C.3     1  ZINC001002468398   -0.1300
     13 C13       -11.3896   -3.7270   57.1085 C.3     1  ZINC001002468398   -0.1300
     14 C14       -11.3848   -2.6178   58.1898 C.3     1  ZINC001002468398    0.1000
     15 N15       -10.2814   -1.7154   57.8013 N.am    1  ZINC001002468398   -0.6100
     16 C16        -9.6043   -0.8992   58.6330 C.2     1  ZINC001002468398    0.5600
     17 O17        -8.7128   -0.1985   58.2024 O.2     1  ZINC001002468398   -0.5100
     18 C18        -9.9549   -0.8570   60.0981 C.3     1  ZINC001002468398   -0.2000
     19 H19       -11.0189   -0.7912   60.3251 H       1  ZINC001002468398    0.1500
     20 C20        -8.9864   -0.1335   61.0358 C.3     1  ZINC001002468398   -0.1500
     21 C21        -9.0763   -1.6614   61.0582 C.3     1  ZINC001002468398    0.2300
     22 F22        -9.6999   -2.2557   62.1605 F       1  ZINC001002468398   -0.1500
     23 F23        -8.0085   -2.3794   60.5090 F       1  ZINC001002468398   -0.1400
     24 N24        -8.1645   -1.2772   51.7733 N.2     1  ZINC001002468398   -0.4600
     25 C25        -7.5105   -0.9784   50.6911 C.2     1  ZINC001002468398    0.1700
     26 O26        -6.8430    0.1686   50.8808 O.3     1  ZINC001002468398   -0.2000
     27 H27        -4.4869    1.3399   52.3474 H       1  ZINC001002468398    0.0600
     28 H28        -5.2780    2.3325   51.0996 H       1  ZINC001002468398    0.0600
     29 H29        -4.7755    3.0719   52.6388 H       1  ZINC001002468398    0.0700
     30 H30        -6.4312    1.6780   53.8488 H       1  ZINC001002468398    0.1200
     31 H31        -7.2222    2.6706   52.6010 H       1  ZINC001002468398    0.0900
     32 H32       -10.2497   -1.8850   52.7349 H       1  ZINC001002468398    0.0700
     33 H33       -11.6393   -1.1186   53.5411 H       1  ZINC001002468398    0.0700
     34 H34       -10.6241   -0.1724   52.4265 H       1  ZINC001002468398    0.0700
     35 H35        -9.8113    0.2797   56.2114 H       1  ZINC001002468398    0.0900
     36 H36       -11.3736   -0.3286   55.6132 H       1  ZINC001002468398    0.0900
     37 H37       -11.9282   -2.4458   55.4172 H       1  ZINC001002468398    0.1000
     38 H38       -10.5591   -3.5584   55.0901 H       1  ZINC001002468398    0.0800
     39 H39       -12.3753   -4.1843   57.0223 H       1  ZINC001002468398    0.0900
     40 H40       -10.6287   -4.4791   57.3169 H       1  ZINC001002468398    0.0800
     41 H41       -12.3338   -2.0815   58.1875 H       1  ZINC001002468398    0.0800
     42 H42       -11.1933   -3.0474   59.1732 H       1  ZINC001002468398    0.0800
     43 H43        -8.0955    0.3121   60.5930 H       1  ZINC001002468398    0.1300
     44 H44        -9.4132    0.4081   61.8799 H       1  ZINC001002468398    0.1400
     45 H45        -7.5085   -1.5599   49.7810 H       1  ZINC001002468398    0.2600
@<TRIPOS>BOND
     1     1     2    1
     2     1    27    1
     3     1    28    1
     4     1    29    1
     5     2     3    1
     6     2    30    1
     7     2    31    1
     8     3    26    1
     9     3     4    2
    10     4     5    1
    11     4    24    1
    12     5     6    2
    13     5     7   am
    14     7     8    1
    15     7     9    1
    16     8    32    1
    17     8    33    1
    18     8    34    1
    19     9    10    1
    20     9    35    1
    21     9    36    1
    22    10    11    1
    23    10    15    1
    24    10    12    1
    25    12    13    1
    26    12    37    1
    27    12    38    1
    28    13    14    1
    29    13    39    1
    30    13    40    1
    31    14    15    1
    32    14    41    1
    33    14    42    1
    34    15    16   am
    35    16    17    2
    36    16    18    1
    37    18    19    1
    38    18    21    1
    39    18    20    1
    40    20    21    1
    41    20    43    1
    42    20    44    1
    43    21    22    1
    44    21    23    1
    45    24    25    2
    46    25    26    1
    47    25    45    1
@<TRIPOS>SUBSTRUCTURE
     1 ZINC001002468398        1 TEMP              0 ****  ****    0 ROOT


##########                                Name:    ZINC000811540126
##########                DOCK_Rotatable_Bonds:                   7
##########                         Heavy_Atoms:                  21
##########                    Molecular_Weight:             397.212
##########                DOCK_Rotatable_Bonds:                   7
##########                       Formal_Charge:           0.0100001
##########                     HBond_Acceptors:                   4
##########                        HBond_Donors:                   3
##########                         Heavy_Atoms:                  21
##########                          Grid_Score:          -27.782406
##########                     Grid_vdw_energy:          -24.911558
##########                      Grid_es_energy:           -2.870848
##########           Internal_energy_repulsive:           12.625277

@<TRIPOS>MOLECULE
ZINC000811540126
 37 38 1 0 0
SMALL
USER_CHARGES


@<TRIPOS>ATOM
      1 C1         -1.9607    3.3586   52.7067 C.3     1  ZINC000811540126   -0.1600
      2 C2         -2.2167    3.7095   51.2395 C.3     1  ZINC000811540126    0.1200
      3 H3         -1.5459    4.5132   50.9358 H       1  ZINC000811540126    0.1000
      4 N4         -1.9742    2.5297   50.4057 N.am    1  ZINC000811540126   -0.7200
      5 C5         -0.7303    2.2636   49.9601 C.2     1  ZINC000811540126    0.5700
      6 O6          0.1902    3.0036   50.2490 O.2     1  ZINC000811540126   -0.5100
      7 C7         -0.4857    1.0744   49.1219 C.ar    1  ZINC000811540126   -0.1600
      8 C8         -0.9987    1.0122   47.8243 C.ar    1  ZINC000811540126   -0.0400
      9 C9         -0.7665   -0.1021   47.0461 C.ar    1  ZINC000811540126   -0.1200
     10 I10        -1.5366   -0.1940   45.1000 I       1  ZINC000811540126   -0.0300
     11 C11        -0.0257   -1.1612   47.5455 C.ar    1  ZINC000811540126   -0.0400
     12 C12         0.4867   -1.1123   48.8269 C.ar    1  ZINC000811540126   -0.1500
     13 C13         0.2677    0.0029   49.6212 C.ar    1  ZINC000811540126    0.1900
     14 O14         0.7710    0.0523   50.8801 O.3     1  ZINC000811540126   -0.4700
     15 C15        -3.6676    4.1645   51.0697 C.3     1  ZINC000811540126    0.1400
     16 H16        -3.8879    4.2882   50.0095 H       1  ZINC000811540126    0.1300
     17 O17        -3.8585    5.4096   51.7444 O.3     1  ZINC000811540126   -0.5400
     18 C18        -4.5909    3.1283   51.6570 C.ar    1  ZINC000811540126   -0.1200
     19 C19        -5.1774    3.3444   52.8899 C.ar    1  ZINC000811540126   -0.1100
     20 C20        -6.0243    2.3939   53.4286 C.ar    1  ZINC000811540126   -0.1100
     21 C21        -6.2851    1.2275   52.7341 C.ar    1  ZINC000811540126   -0.1200
     22 C22        -5.6993    1.0117   51.5008 C.ar    1  ZINC000811540126   -0.1100
     23 C23        -4.8558    1.9642   50.9602 C.ar    1  ZINC000811540126   -0.1100
     24 H24        -0.9271    3.0345   52.8277 H       1  ZINC000811540126    0.0600
     25 H25        -2.1413    4.2365   53.3270 H       1  ZINC000811540126    0.0700
     26 H26        -2.6315    2.5550   53.0104 H       1  ZINC000811540126    0.0700
     27 H27        -2.7087    1.9399   50.1744 H       1  ZINC000811540126    0.3900
     28 H28        -1.5766    1.8355   47.4312 H       1  ZINC000811540126    0.1300
     29 H29         0.1518   -2.0301   46.9292 H       1  ZINC000811540126    0.1400
     30 H30         1.0629   -1.9420   49.2093 H       1  ZINC000811540126    0.1500
     31 H31         1.0975   -0.7972   51.2068 H       1  ZINC000811540126    0.4000
     32 H32        -3.4857    5.4349   52.6363 H       1  ZINC000811540126    0.3700
     33 H33        -4.9736    4.2557   53.4325 H       1  ZINC000811540126    0.1100
     34 H34        -6.4820    2.5625   54.3923 H       1  ZINC000811540126    0.1200
     35 H35        -6.9462    0.4845   53.1553 H       1  ZINC000811540126    0.1200
     36 H36        -5.9028    0.1002   50.9583 H       1  ZINC000811540126    0.1300
     37 H37        -4.3981    1.7956   49.9965 H       1  ZINC000811540126    0.1200
@<TRIPOS>BOND
     1     1     2    1
     2     1    24    1
     3     1    25    1
     4     1    26    1
     5     2     3    1
     6     2     4    1
     7     2    15    1
     8     4     5   am
     9     4    27    1
    10     5     6    2
    11     5     7    1
    12     7    13   ar
    13     7     8   ar
    14     8     9   ar
    15     8    28    1
    16     9    10    1
    17     9    11   ar
    18    11    12   ar
    19    11    29    1
    20    12    13   ar
    21    12    30    1
    22    13    14    1
    23    14    31    1
    24    15    16    1
    25    15    17    1
    26    15    18    1
    27    17    32    1
    28    18    23   ar
    29    18    19   ar
    30    19    20   ar
    31    19    33    1
    32    20    21   ar
    33    20    34    1
    34    21    22   ar
    35    21    35    1
    36    22    23   ar
    37    22    36    1
    38    23    37    1
@<TRIPOS>SUBSTRUCTURE
     1 ZINC000811540126        1 TEMP              0 ****  ****    0 ROOT


##########                                Name:    ZINC000948289723
##########                DOCK_Rotatable_Bonds:                   6
##########                         Heavy_Atoms:                  24
##########                    Molecular_Weight:             331.415
##########                DOCK_Rotatable_Bonds:                   6
##########                       Formal_Charge:           0.0599999
##########                     HBond_Acceptors:                   6
##########                        HBond_Donors:                   1
##########                         Heavy_Atoms:                  24
##########                          Grid_Score:          -27.772629
##########                     Grid_vdw_energy:          -26.143158
##########                      Grid_es_energy:           -1.629471
##########           Internal_energy_repulsive:           10.618143

@<TRIPOS>MOLECULE
ZINC000948289723
 49 52 1 0 0
SMALL
USER_CHARGES


@<TRIPOS>ATOM
      1 C1        -18.0183    0.1588   58.9202 C.3     1  ZINC000948289723   -0.1400
      2 C2        -17.4037   -1.2423   58.9392 C.3     1  ZINC000948289723   -0.1100
      3 C3        -15.8854   -1.2523   58.6958 C.3     1  ZINC000948289723   -0.1100
      4 C4        -15.7986   -2.3423   59.7771 C.3     1  ZINC000948289723   -0.1400
      5 C5        -14.6121   -2.1900   60.6938 C.2     1  ZINC000948289723    0.5400
      6 O6        -14.7650   -2.2342   61.8961 O.2     1  ZINC000948289723   -0.5300
      7 N7        -13.3811   -2.0046   60.1774 N.am    1  ZINC000948289723   -0.6200
      8 C8        -12.1424   -1.8422   60.9525 C.3     1  ZINC000948289723    0.1100
      9 C9        -10.9865   -1.6868   59.9418 C.3     1  ZINC000948289723   -0.1100
     10 H10       -10.7596   -0.6339   59.7742 H       1  ZINC000948289723    0.1000
     11 C11        -9.7425   -2.4367   60.4224 C.3     1  ZINC000948289723   -0.1400
     12 C12       -11.5606   -2.3362   58.6548 C.3     1  ZINC000948289723    0.1400
     13 H13       -11.4472   -3.4199   58.6801 H       1  ZINC000948289723    0.1200
     14 N14       -10.9322   -1.7730   57.4572 N.am    1  ZINC000948289723   -0.7100
     15 C15       -10.6506   -2.5686   56.4065 C.2     1  ZINC000948289723    0.6100
     16 O16       -10.9194   -3.7534   56.4519 O.2     1  ZINC000948289723   -0.5000
     17 C17       -10.0163   -2.0018   55.2013 C.2     1  ZINC000948289723   -0.0900
     18 C18        -9.7364   -0.6841   54.9617 C.2     1  ZINC000948289723   -0.1400
     19 C19        -9.1404   -0.6926   53.6810 C.2     1  ZINC000948289723    0.0500
     20 C20        -8.6311    0.5021   52.9166 C.3     1  ZINC000948289723   -0.0900
     21 C21        -8.6360    1.8538   53.6334 C.3     1  ZINC000948289723   -0.1600
     22 C22        -7.3136    1.1275   53.3791 C.3     1  ZINC000948289723   -0.1600
     23 N23        -9.1166   -1.9336   53.2904 N.2     1  ZINC000948289723   -0.3300
     24 O24        -9.5905   -2.6773   54.1173 O.3     1  ZINC000948289723    0.1200
     25 C25       -13.0528   -1.9374   58.7417 C.3     1  ZINC000948289723    0.0900
     26 C26       -17.1010   -1.7632   60.3540 C.3     1  ZINC000948289723   -0.1200
     27 H27       -17.3298    0.8638   59.3860 H       1  ZINC000948289723    0.0600
     28 H28       -18.2046    0.4598   57.8894 H       1  ZINC000948289723    0.0600
     29 H29       -18.9584    0.1507   59.4719 H       1  ZINC000948289723    0.0600
     30 H30       -17.9513   -1.9531   58.3201 H       1  ZINC000948289723    0.0900
     31 H31       -15.6049   -1.6003   57.7015 H       1  ZINC000948289723    0.0700
     32 H32       -15.3924   -0.3209   58.9740 H       1  ZINC000948289723    0.1000
     33 H33       -15.9044   -3.3544   59.3865 H       1  ZINC000948289723    0.1100
     34 H34       -12.2103   -0.9519   61.5777 H       1  ZINC000948289723    0.0800
     35 H35       -11.9757   -2.7222   61.5738 H       1  ZINC000948289723    0.0800
     36 H36        -9.9829   -3.4916   60.5550 H       1  ZINC000948289723    0.0600
     37 H37        -8.9485   -2.3351   59.6826 H       1  ZINC000948289723    0.0600
     38 H38        -9.4101   -2.0178   61.3722 H       1  ZINC000948289723    0.0700
     39 H39       -10.7189   -0.8274   57.4206 H       1  ZINC000948289723    0.4100
     40 H40        -9.9271    0.1644   55.6020 H       1  ZINC000948289723    0.1800
     41 H41        -8.8383    0.4988   51.8465 H       1  ZINC000948289723    0.1300
     42 H42        -8.8465    2.7402   53.0349 H       1  ZINC000948289723    0.1100
     43 H43        -9.0075    1.8790   54.6578 H       1  ZINC000948289723    0.1000
     44 H44        -6.8151    0.6748   54.2362 H       1  ZINC000948289723    0.1000
     45 H45        -6.6542    1.5359   52.6133 H       1  ZINC000948289723    0.1100
     46 H46       -13.6663   -2.6382   58.1756 H       1  ZINC000948289723    0.0900
     47 H47       -13.1962   -0.9221   58.3724 H       1  ZINC000948289723    0.0800
     48 H48       -16.9404   -0.9714   61.0857 H       1  ZINC000948289723    0.0900
     49 H49       -17.8019   -2.5234   60.6987 H       1  ZINC000948289723    0.0800
@<TRIPOS>BOND
     1     1     2    1
     2     1    27    1
     3     1    28    1
     4     1    29    1
     5     2    26    1
     6     2     3    1
     7     2    30    1
     8     3     4    1
     9     3    31    1
    10     3    32    1
    11     4     5    1
    12     4    26    1
    13     4    33    1
    14     5     6    2
    15     5     7   am
    16     7    25    1
    17     7     8    1
    18     8     9    1
    19     8    34    1
    20     8    35    1
    21     9    10    1
    22     9    11    1
    23     9    12    1
    24    11    36    1
    25    11    37    1
    26    11    38    1
    27    12    13    1
    28    12    14    1
    29    12    25    1
    30    14    15   am
    31    14    39    1
    32    15    16    2
    33    15    17    1
    34    17    24    1
    35    17    18    2
    36    18    19    1
    37    18    40    1
    38    19    20    1
    39    19    23    2
    40    20    22    1
    41    20    21    1
    42    20    41    1
    43    21    22    1
    44    21    42    1
    45    21    43    1
    46    22    44    1
    47    22    45    1
    48    23    24    1
    49    25    46    1
    50    25    47    1
    51    26    48    1
    52    26    49    1
@<TRIPOS>SUBSTRUCTURE
     1 ZINC000948289723        1 TEMP              0 ****  ****    0 ROOT


##########                                Name:    ZINC000846412382
##########                DOCK_Rotatable_Bonds:                   6
##########                         Heavy_Atoms:                  26
##########                    Molecular_Weight:             370.475
##########                DOCK_Rotatable_Bonds:                   6
##########                       Formal_Charge:               -0.03
##########                     HBond_Acceptors:                   7
##########                        HBond_Donors:                   4
##########                         Heavy_Atoms:                  26
##########                          Grid_Score:          -27.758831
##########                     Grid_vdw_energy:          -27.420237
##########                      Grid_es_energy:           -0.338594
##########           Internal_energy_repulsive:           25.923868

@<TRIPOS>MOLECULE
ZINC000846412382
 48 50 1 0 0
SMALL
USER_CHARGES


@<TRIPOS>ATOM
      1 C1        -10.2038   -0.9923   55.6182 C.3     1  ZINC000846412382   -0.1400
      2 C2         -9.3472   -0.1992   56.5712 C.2     1  ZINC000846412382    0.0300
      3 C3         -8.5507    0.7946   56.1580 C.2     1  ZINC000846412382   -0.2700
      4 C4         -8.4121    1.2283   54.7624 C.2     1  ZINC000846412382    0.6000
      5 O5         -9.0929    2.1436   54.3392 O.2     1  ZINC000846412382   -0.5200
      6 N6         -7.5304    0.6127   53.9498 N.am    1  ZINC000846412382   -0.7100
      7 C7         -7.3933    1.0444   52.5566 C.3     1  ZINC000846412382    0.1200
      8 H8         -7.8268    2.0376   52.4395 H       1  ZINC000846412382    0.1000
      9 C9         -5.9111    1.0872   52.1795 C.3     1  ZINC000846412382   -0.1700
     10 C10        -8.1237    0.0583   51.6428 C.3     1  ZINC000846412382    0.1700
     11 C11        -7.8010   -1.3733   52.0759 C.3     1  ZINC000846412382   -0.1400
     12 O12        -7.6981    0.2548   50.2928 O.3     1  ZINC000846412382   -0.5500
     13 C13        -9.6097    0.2895   51.7399 C.ar    1  ZINC000846412382   -0.1200
     14 C14       -10.1356    1.5350   51.4517 C.ar    1  ZINC000846412382   -0.1100
     15 C15       -11.4987    1.7471   51.5408 C.ar    1  ZINC000846412382   -0.1200
     16 C16       -12.3359    0.7136   51.9173 C.ar    1  ZINC000846412382   -0.1200
     17 C17       -11.8100   -0.5322   52.2045 C.ar    1  ZINC000846412382   -0.1200
     18 C18       -10.4473   -0.7454   52.1114 C.ar    1  ZINC000846412382   -0.1000
     19 S19        -7.6953    1.5076   57.5150 S.3     1  ZINC000846412382    0.2000
     20 C20        -8.4661    0.4025   58.6450 C.ar    1  ZINC000846412382    0.1400
     21 N21        -8.3514    0.2738   59.9717 N.ar    1  ZINC000846412382   -0.5300
     22 C22        -9.0347   -0.6373   60.6260 C.ar    1  ZINC000846412382    0.3900
     23 C23        -8.8682   -0.7388   62.1203 C.3     1  ZINC000846412382   -0.0900
     24 N24        -9.8632   -1.4670   60.0183 N.ar    1  ZINC000846412382   -0.5800
     25 C25       -10.0461   -1.4193   58.7075 C.ar    1  ZINC000846412382    0.5100
     26 N26       -10.9159   -2.2942   58.0888 N.pl3   1  ZINC000846412382   -0.8300
     27 C27        -9.3354   -0.4478   57.9476 C.ar    1  ZINC000846412382   -0.2500
     28 H28       -11.2065   -0.5659   55.5901 H       1  ZINC000846412382    0.0800
     29 H29        -9.7659   -0.9569   54.6207 H       1  ZINC000846412382    0.1100
     30 H30       -10.2584   -2.0277   55.9545 H       1  ZINC000846412382    0.0700
     31 H31        -6.9867   -0.1162   54.2874 H       1  ZINC000846412382    0.4000
     32 H32        -5.4776    0.0939   52.2964 H       1  ZINC000846412382    0.0600
     33 H33        -5.8091    1.4084   51.1429 H       1  ZINC000846412382    0.0800
     34 H34        -5.3908    1.7897   52.8304 H       1  ZINC000846412382    0.0700
     35 H35        -8.1256   -1.5233   53.1056 H       1  ZINC000846412382    0.0700
     36 H36        -8.3213   -2.0759   51.4249 H       1  ZINC000846412382    0.0700
     37 H37        -6.7262   -1.5406   52.0057 H       1  ZINC000846412382    0.0700
     38 H38        -7.7203   -0.5471   49.7529 H       1  ZINC000846412382    0.3800
     39 H39        -9.4815    2.3424   51.1575 H       1  ZINC000846412382    0.1300
     40 H40       -11.9095    2.7204   51.3164 H       1  ZINC000846412382    0.1200
     41 H41       -13.4007    0.8795   51.9876 H       1  ZINC000846412382    0.1200
     42 H42       -12.4640   -1.3396   52.4991 H       1  ZINC000846412382    0.1200
     43 H43       -10.0365   -1.7187   52.3358 H       1  ZINC000846412382    0.1300
     44 H44        -9.5960   -0.0930   62.6117 H       1  ZINC000846412382    0.0900
     45 H45        -9.0273   -1.7703   62.4343 H       1  ZINC000846412382    0.0900
     46 H46        -7.8609   -0.4264   62.3957 H       1  ZINC000846412382    0.0900
     47 H47       -11.1503   -3.1311   58.5197 H       1  ZINC000846412382    0.4100
     48 H48       -11.2929   -2.0721   57.2231 H       1  ZINC000846412382    0.4200
@<TRIPOS>BOND
     1     1     2    1
     2     1    28    1
     3     1    29    1
     4     1    30    1
     5     2    27    1
     6     2     3    2
     7     3     4    1
     8     3    19    1
     9     4     5    2
    10     4     6   am
    11     6     7    1
    12     6    31    1
    13     7     8    1
    14     7     9    1
    15     7    10    1
    16     9    32    1
    17     9    33    1
    18     9    34    1
    19    10    11    1
    20    10    12    1
    21    10    13    1
    22    11    35    1
    23    11    36    1
    24    11    37    1
    25    12    38    1
    26    13    18   ar
    27    13    14   ar
    28    14    15   ar
    29    14    39    1
    30    15    16   ar
    31    15    40    1
    32    16    17   ar
    33    16    41    1
    34    17    18   ar
    35    17    42    1
    36    18    43    1
    37    19    20    1
    38    20    27   ar
    39    20    21   ar
    40    21    22   ar
    41    22    23    1
    42    22    24   ar
    43    23    44    1
    44    23    45    1
    45    23    46    1
    46    24    25   ar
    47    25    26    1
    48    25    27   ar
    49    26    47    1
    50    26    48    1
@<TRIPOS>SUBSTRUCTURE
     1 ZINC000846412382        1 TEMP              0 ****  ****    0 ROOT


##########                                Name:    ZINC000494558165
##########                DOCK_Rotatable_Bonds:                  11
##########                         Heavy_Atoms:                  28
##########                    Molecular_Weight:             409.506
##########                DOCK_Rotatable_Bonds:                  11
##########                       Formal_Charge:        -6.55651e-07
##########                     HBond_Acceptors:                   9
##########                        HBond_Donors:                   3
##########                         Heavy_Atoms:                  28
##########                          Grid_Score:          -27.746544
##########                     Grid_vdw_energy:          -27.763794
##########                      Grid_es_energy:            0.017250
##########           Internal_energy_repulsive:           30.734814

@<TRIPOS>MOLECULE
ZINC000494558165
 55 57 1 0 0
SMALL
USER_CHARGES


@<TRIPOS>ATOM
      1 O1         -7.0993    0.3613   58.1989 O.2     1  ZINC000494558165   -0.4400
      2 C2         -8.2519    0.4180   58.5704 C.2     1  ZINC000494558165    0.5100
      3 C3         -8.5866    0.2027   60.0239 C.3     1  ZINC000494558165    0.0300
      4 N4         -9.5584   -0.8922   60.1456 N.3     1  ZINC000494558165   -0.5000
      5 C5         -8.9264   -2.1898   59.8722 C.3     1  ZINC000494558165    0.0500
      6 C6         -9.9806   -3.1722   59.3579 C.3     1  ZINC000494558165   -0.1100
      7 C7        -10.2373   -2.9132   57.8721 C.3     1  ZINC000494558165    0.0800
      8 O8        -11.5813   -2.4624   57.6924 O.3     1  ZINC000494558165   -0.5700
      9 C9        -10.1960   -0.8855   61.4691 C.3     1  ZINC000494558165    0.1200
     10 H10       -10.2862   -1.9028   61.8498 H       1  ZINC000494558165    0.1000
     11 C11       -11.5852   -0.2176   61.3909 C.3     1  ZINC000494558165   -0.1200
     12 C12       -11.2660    1.2527   61.7352 C.3     1  ZINC000494558165   -0.0900
     13 C13       -10.0142    1.1979   62.5844 C.ar    1  ZINC000494558165   -0.0900
     14 C14        -9.4571    2.1476   63.4239 C.ar    1  ZINC000494558165   -0.1100
     15 C15        -8.2895    1.8710   64.1085 C.ar    1  ZINC000494558165   -0.1100
     16 C16        -7.6749    0.6426   63.9557 C.ar    1  ZINC000494558165   -0.1200
     17 C17        -8.2292   -0.3063   63.1185 C.ar    1  ZINC000494558165   -0.1000
     18 C18        -9.3978   -0.0331   62.4322 C.ar    1  ZINC000494558165   -0.1300
     19 N19        -9.2334    0.6792   57.6844 N.am    1  ZINC000494558165   -0.6900
     20 C20        -8.9340    0.8717   56.3844 C.2     1  ZINC000494558165    0.7000
     21 O21        -7.7792    0.8085   56.0109 O.2     1  ZINC000494558165   -0.5200
     22 N22        -9.9152    1.1345   55.4987 N.am    1  ZINC000494558165   -0.7300
     23 C23        -9.5901    1.3421   54.0854 C.3     1  ZINC000494558165    0.1700
     24 H24        -8.6907    1.9523   54.0021 H       1  ZINC000494558165    0.1200
     25 C25        -9.3578   -0.0174   53.4029 C.3     1  ZINC000494558165   -0.1400
     26 C26        -9.3515    0.2484   51.8754 C.3     1  ZINC000494558165   -0.5800
     27 S27       -10.7485    1.4167   51.6682 S.o2    1  ZINC000494558165    2.4000
     28 O28       -10.3636    2.4586   50.7819 O.2     1  ZINC000494558165   -0.9300
     29 O29       -11.9421    0.6852   51.4245 O.2     1  ZINC000494558165   -0.9300
     30 C30       -10.7645    2.0510   53.3820 C.3     1  ZINC000494558165   -0.6200
     31 H31        -7.6797   -0.0538   60.5715 H       1  ZINC000494558165    0.0700
     32 H32        -9.0146    1.1160   60.4373 H       1  ZINC000494558165    0.1200
     33 H33        -8.1490   -2.0638   59.1188 H       1  ZINC000494558165    0.0900
     34 H34        -8.4840   -2.5788   60.7893 H       1  ZINC000494558165    0.0400
     35 H35        -9.6223   -4.1929   59.4923 H       1  ZINC000494558165    0.0700
     36 H36       -10.9070   -3.0359   59.9159 H       1  ZINC000494558165    0.0800
     37 H37        -9.5469   -2.1505   57.5116 H       1  ZINC000494558165    0.0500
     38 H38       -10.0853   -3.8353   57.3110 H       1  ZINC000494558165    0.0400
     39 H39       -12.2306   -3.1763   57.6296 H       1  ZINC000494558165    0.3800
     40 H40       -11.9983   -0.2991   60.3855 H       1  ZINC000494558165    0.0900
     41 H41       -12.2644   -0.6491   62.1262 H       1  ZINC000494558165    0.0800
     42 H42       -11.0808    1.8227   60.8248 H       1  ZINC000494558165    0.0800
     43 H43       -12.0867    1.6958   62.2993 H       1  ZINC000494558165    0.0800
     44 H44        -9.9367    3.1078   63.5436 H       1  ZINC000494558165    0.1200
     45 H45        -7.8578    2.6138   64.7629 H       1  ZINC000494558165    0.1300
     46 H46        -6.7618    0.4249   64.4899 H       1  ZINC000494558165    0.1200
     47 H47        -7.7481   -1.2658   62.9993 H       1  ZINC000494558165    0.1200
     48 H48       -10.1552    0.7286   57.9822 H       1  ZINC000494558165    0.4100
     49 H49       -10.8368    1.1862   55.7970 H       1  ZINC000494558165    0.4000
     50 H50        -8.3988   -0.4321   53.7136 H       1  ZINC000494558165    0.1100
     51 H51       -10.1632   -0.7059   53.6587 H       1  ZINC000494558165    0.0900
     52 H52        -8.4130    0.7090   51.5667 H       1  ZINC000494558165    0.1400
     53 H53        -9.5323   -0.6728   51.3216 H       1  ZINC000494558165    0.1400
     54 H54       -11.7065    1.8004   53.8696 H       1  ZINC000494558165    0.1500
     55 H55       -10.6096    3.1299   53.3877 H       1  ZINC000494558165    0.1500
@<TRIPOS>BOND
     1     1     2    2
     2     2     3    1
     3     2    19   am
     4     3     4    1
     5     3    31    1
     6     3    32    1
     7     4     5    1
     8     4     9    1
     9     5     6    1
    10     5    33    1
    11     5    34    1
    12     6     7    1
    13     6    35    1
    14     6    36    1
    15     7     8    1
    16     7    37    1
    17     7    38    1
    18     8    39    1
    19     9    10    1
    20     9    18    1
    21     9    11    1
    22    11    12    1
    23    11    40    1
    24    11    41    1
    25    12    13    1
    26    12    42    1
    27    12    43    1
    28    13    18   ar
    29    13    14   ar
    30    14    15   ar
    31    14    44    1
    32    15    16   ar
    33    15    45    1
    34    16    17   ar
    35    16    46    1
    36    17    18   ar
    37    17    47    1
    38    19    20   am
    39    19    48    1
    40    20    21    2
    41    20    22   am
    42    22    23    1
    43    22    49    1
    44    23    24    1
    45    23    30    1
    46    23    25    1
    47    25    26    1
    48    25    50    1
    49    25    51    1
    50    26    27    1
    51    26    52    1
    52    26    53    1
    53    27    28    2
    54    27    29    2
    55    27    30    1
    56    30    54    1
    57    30    55    1
@<TRIPOS>SUBSTRUCTURE
     1 ZINC000494558165        1 TEMP              0 ****  ****    0 ROOT


##########                                Name:    ZINC000742270208
##########                DOCK_Rotatable_Bonds:                   5
##########                         Heavy_Atoms:                  25
##########                    Molecular_Weight:             376.328
##########                DOCK_Rotatable_Bonds:                   5
##########                       Formal_Charge:                0.02
##########                     HBond_Acceptors:                   9
##########                        HBond_Donors:                   0
##########                         Heavy_Atoms:                  25
##########                          Grid_Score:          -27.740892
##########                     Grid_vdw_energy:          -26.724892
##########                      Grid_es_energy:           -1.016001
##########           Internal_energy_repulsive:           15.398814

@<TRIPOS>MOLECULE
ZINC000742270208
 37 38 1 0 0
SMALL
USER_CHARGES


@<TRIPOS>ATOM
      1 C1         -3.9405    4.2216   54.0974 C.3     1  ZINC000742270208   -0.1400
      2 C2         -4.3222    3.4728   52.8188 C.3     1  ZINC000742270208   -0.1400
      3 C3         -5.7767    3.0082   52.9148 C.3     1  ZINC000742270208   -0.1400
      4 C4         -4.1650    4.3902   51.6336 C.2     1  ZINC000742270208    0.4000
      5 O5         -4.4076    5.5729   51.7459 O.2     1  ZINC000742270208   -0.4300
      6 C6         -3.7170    3.8506   50.3398 C.ar    1  ZINC000742270208   -0.1000
      7 C7         -3.1361    4.6957   49.3890 C.ar    1  ZINC000742270208   -0.0900
      8 C8         -2.7190    4.1825   48.1790 C.ar    1  ZINC000742270208   -0.0200
      9 C9         -2.8742    2.8350   47.9043 C.ar    1  ZINC000742270208   -0.6800
     10 S10        -2.3378    2.1889   46.3552 S.o2    1  ZINC000742270208    2.6600
     11 O11        -2.9598    0.9192   46.2130 O.2     1  ZINC000742270208   -0.9300
     12 O12        -2.4880    3.2384   45.4091 O.2     1  ZINC000742270208   -0.9000
     13 O13        -0.8433    1.9248   46.4704 O.3     1  ZINC000742270208   -0.6400
     14 C14        -0.5175    0.9840   47.3971 C.ar    1  ZINC000742270208    0.0500
     15 C15        -0.1965    1.3663   48.6923 C.ar    1  ZINC000742270208    0.0900
     16 F16        -0.2073    2.6734   49.0336 F       1  ZINC000742270208   -0.0900
     17 C17         0.1346    0.4064   49.6348 C.ar    1  ZINC000742270208    0.1100
     18 F18         0.4471    0.7779   50.8955 F       1  ZINC000742270208   -0.1000
     19 C19         0.1449   -0.9332   49.2858 C.ar    1  ZINC000742270208   -0.1100
     20 C20        -0.1745   -1.3164   47.9943 C.ar    1  ZINC000742270208    0.1200
     21 F21        -0.1637   -2.6243   47.6561 F       1  ZINC000742270208   -0.1000
     22 C22        -0.5113   -0.3600   47.0503 C.ar    1  ZINC000742270208    0.1200
     23 F23        -0.8234   -0.7345   45.7904 F       1  ZINC000742270208   -0.0900
     24 C24        -3.4480    1.9920   48.8401 C.ar    1  ZINC000742270208   -0.0300
     25 C25        -3.8647    2.4888   50.0571 C.ar    1  ZINC000742270208   -0.0800
     26 H26        -4.0542    3.5581   54.9547 H       1  ZINC000742270208    0.0700
     27 H27        -2.9043    4.5526   54.0290 H       1  ZINC000742270208    0.0600
     28 H28        -4.5912    5.0875   54.2193 H       1  ZINC000742270208    0.0600
     29 H29        -3.6714    2.6069   52.6969 H       1  ZINC000742270208    0.1000
     30 H30        -6.4274    3.8741   53.0367 H       1  ZINC000742270208    0.0700
     31 H31        -6.0487    2.4749   52.0039 H       1  ZINC000742270208    0.0600
     32 H32        -5.8904    2.3447   53.7721 H       1  ZINC000742270208    0.0700
     33 H33        -3.0150    5.7476   49.6016 H       1  ZINC000742270208    0.1500
     34 H34        -2.2702    4.8339   47.4437 H       1  ZINC000742270208    0.1500
     35 H35         0.4029   -1.6804   50.0217 H       1  ZINC000742270208    0.1900
     36 H36        -3.5658    0.9416   48.6184 H       1  ZINC000742270208    0.1500
     37 H37        -4.3123    1.8299   50.7864 H       1  ZINC000742270208    0.1500
@<TRIPOS>BOND
     1     1     2    1
     2     1    26    1
     3     1    27    1
     4     1    28    1
     5     2     3    1
     6     2     4    1
     7     2    29    1
     8     3    30    1
     9     3    31    1
    10     3    32    1
    11     4     5    2
    12     4     6    1
    13     6    25   ar
    14     6     7   ar
    15     7     8   ar
    16     7    33    1
    17     8     9   ar
    18     8    34    1
    19     9    10    1
    20     9    24   ar
    21    10    11    2
    22    10    12    2
    23    10    13    1
    24    13    14    1
    25    14    22   ar
    26    14    15   ar
    27    15    16    1
    28    15    17   ar
    29    17    18    1
    30    17    19   ar
    31    19    20   ar
    32    19    35    1
    33    20    21    1
    34    20    22   ar
    35    22    23    1
    36    24    25   ar
    37    24    36    1
    38    25    37    1
@<TRIPOS>SUBSTRUCTURE
     1 ZINC000742270208        1 TEMP              0 ****  ****    0 ROOT


##########                                Name:    ZINC000883773972
##########                DOCK_Rotatable_Bonds:                   4
##########                         Heavy_Atoms:                  23
##########                    Molecular_Weight:             343.447
##########                DOCK_Rotatable_Bonds:                   4
##########                       Formal_Charge:                0.01
##########                     HBond_Acceptors:                   8
##########                        HBond_Donors:                   1
##########                         Heavy_Atoms:                  23
##########                          Grid_Score:          -27.737646
##########                     Grid_vdw_energy:          -26.959232
##########                      Grid_es_energy:           -0.778414
##########           Internal_energy_repulsive:            5.196967

@<TRIPOS>MOLECULE
ZINC000883773972
 48 50 1 0 0
SMALL
USER_CHARGES


@<TRIPOS>ATOM
      1 C1         -5.2952    5.3585   57.8958 C.3     1  ZINC000883773972   -0.1700
      2 C2         -6.2354    4.4393   57.1592 C.2     1  ZINC000883773972    0.5300
      3 O3         -7.2979    4.1328   57.6571 O.2     1  ZINC000883773972   -0.5400
      4 N4         -5.8953    3.9580   55.9471 N.am    1  ZINC000883773972   -0.6200
      5 C5         -6.6975    3.0598   55.1004 C.3     1  ZINC000883773972    0.1100
      6 C6         -6.3535    3.4146   53.6442 C.3     1  ZINC000883773972   -0.1100
      7 H7         -7.1375    4.0092   53.1753 H       1  ZINC000883773972    0.1000
      8 C8         -6.0672    2.1235   52.8592 C.3     1  ZINC000883773972    0.1300
      9 N9         -4.8057    2.3492   52.1349 N.am    1  ZINC000883773972   -0.6400
     10 C10        -4.4561    1.8251   50.9433 C.2     1  ZINC000883773972    0.7300
     11 O11        -5.2197    1.0809   50.3590 O.2     1  ZINC000883773972   -0.5800
     12 N12        -3.2601    2.1259   50.3997 N.am    1  ZINC000883773972   -0.7400
     13 C13        -2.8794    1.5549   49.1054 C.3     1  ZINC000883773972    0.1800
     14 H14        -3.5250    0.7057   48.8808 H       1  ZINC000883773972    0.1100
     15 C15        -3.0385    2.6136   48.0182 C.3     1  ZINC000883773972   -0.1500
     16 C16        -2.8933    1.9888   46.6336 C.3     1  ZINC000883773972   -0.1000
     17 C17        -1.4406    1.5683   46.3992 C.3     1  ZINC000883773972   -0.5600
     18 H18        -0.7855    2.4290   46.5340 H       1  ZINC000883773972    0.1400
     19 C19        -1.2877    1.0261   44.9767 C.3     1  ZINC000883773972   -0.1400
     20 S20        -0.9989    0.2749   47.5961 S.o2    1  ZINC000883773972    2.4200
     21 O21        -1.8650   -0.8355   47.4060 O.2     1  ZINC000883773972   -0.9200
     22 O22         0.4073    0.0756   47.5519 O.2     1  ZINC000883773972   -0.9300
     23 C23        -1.4244    1.0847   49.1659 C.3     1  ZINC000883773972   -0.6300
     24 C24        -4.0005    3.2592   52.9661 C.3     1  ZINC000883773972    0.1100
     25 C25        -5.0101    4.1813   53.7166 C.3     1  ZINC000883773972   -0.1100
     26 H26        -5.0611    5.1747   53.2709 H       1  ZINC000883773972    0.1000
     27 C27        -4.6520    4.2330   55.2084 C.3     1  ZINC000883773972    0.1100
     28 H28        -5.7381    5.6421   58.8505 H       1  ZINC000883773972    0.0900
     29 H29        -4.3496    4.8458   58.0719 H       1  ZINC000883773972    0.0900
     30 H30        -5.1181    6.2523   57.2977 H       1  ZINC000883773972    0.0900
     31 H31        -6.4365    2.0214   55.3042 H       1  ZINC000883773972    0.0800
     32 H32        -7.7597    3.2221   55.2841 H       1  ZINC000883773972    0.0900
     33 H33        -5.9592    1.2842   53.5463 H       1  ZINC000883773972    0.0700
     34 H34        -6.8743    1.9281   52.1532 H       1  ZINC000883773972    0.0900
     35 H35        -2.6515    2.7206   50.8653 H       1  ZINC000883773972    0.4000
     36 H36        -4.0239    3.0715   48.1041 H       1  ZINC000883773972    0.0900
     37 H37        -2.2744    3.3799   48.1485 H       1  ZINC000883773972    0.0800
     38 H38        -3.5393    1.1138   46.5620 H       1  ZINC000883773972    0.0900
     39 H39        -3.1862    2.7159   45.8761 H       1  ZINC000883773972    0.0900
     40 H40        -1.5606    1.8016   44.2611 H       1  ZINC000883773972    0.0800
     41 H41        -0.2527    0.7269   44.8112 H       1  ZINC000883773972    0.0700
     42 H42        -1.9408    0.1634   44.8446 H       1  ZINC000883773972    0.0800
     43 H43        -0.7685    1.9408   49.3242 H       1  ZINC000883773972    0.1400
     44 H44        -1.3058    0.3762   49.9857 H       1  ZINC000883773972    0.1400
     45 H45        -3.4055    2.6876   53.6782 H       1  ZINC000883773972    0.0800
     46 H46        -3.3499    3.8650   52.3352 H       1  ZINC000883773972    0.0800
     47 H47        -4.2524    5.2145   55.4634 H       1  ZINC000883773972    0.0900
     48 H48        -3.9225    3.4584   55.4451 H       1  ZINC000883773972    0.0700
@<TRIPOS>BOND
     1     1     2    1
     2     1    28    1
     3     1    29    1
     4     1    30    1
     5     2     3    2
     6     2     4   am
     7     4    27    1
     8     4     5    1
     9     5     6    1
    10     5    31    1
    11     5    32    1
    12     6     7    1
    13     6    25    1
    14     6     8    1
    15     8     9    1
    16     8    33    1
    17     8    34    1
    18     9    10   am
    19     9    24    1
    20    10    11    2
    21    10    12   am
    22    12    13    1
    23    12    35    1
    24    13    14    1
    25    13    23    1
    26    13    15    1
    27    15    16    1
    28    15    36    1
    29    15    37    1
    30    16    17    1
    31    16    38    1
    32    16    39    1
    33    17    18    1
    34    17    19    1
    35    17    20    1
    36    19    40    1
    37    19    41    1
    38    19    42    1
    39    20    21    2
    40    20    22    2
    41    20    23    1
    42    23    43    1
    43    23    44    1
    44    24    25    1
    45    24    45    1
    46    24    46    1
    47    25    26    1
    48    25    27    1
    49    27    47    1
    50    27    48    1
@<TRIPOS>SUBSTRUCTURE
     1 ZINC000883773972        1 TEMP              0 ****  ****    0 ROOT


##########                                Name:    ZINC001011267435
##########                DOCK_Rotatable_Bonds:                   7
##########                         Heavy_Atoms:                  24
##########                    Molecular_Weight:             331.458
##########                DOCK_Rotatable_Bonds:                   7
##########                       Formal_Charge:        -4.47035e-08
##########                     HBond_Acceptors:                   5
##########                        HBond_Donors:                   0
##########                         Heavy_Atoms:                  24
##########                          Grid_Score:          -27.677622
##########                     Grid_vdw_energy:          -26.975847
##########                      Grid_es_energy:           -0.701775
##########           Internal_energy_repulsive:           39.508297

@<TRIPOS>MOLECULE
ZINC001011267435
 53 54 1 0 0
SMALL
USER_CHARGES


@<TRIPOS>ATOM
      1 C1         -8.8757    0.8137   66.0127 C.3     1  ZINC001011267435   -0.1500
      2 C2         -7.8911   -0.0791   65.2549 C.3     1  ZINC001011267435   -0.1200
      3 C3         -7.5895    0.5393   63.8885 C.3     1  ZINC001011267435   -0.0700
      4 C4         -8.8137    0.4479   63.0144 C.ar    1  ZINC001011267435    0.1300
      5 C5         -9.0300   -0.6900   62.2619 C.ar    1  ZINC001011267435   -0.1200
      6 C6        -10.1697   -0.7627   61.4548 C.ar    1  ZINC001011267435   -0.0800
      7 C7        -10.4438   -1.9629   60.6308 C.2     1  ZINC001011267435    0.5600
      8 O8        -10.9894   -2.9288   61.1268 O.2     1  ZINC001011267435   -0.5200
      9 N9        -10.0879   -1.9836   59.3310 N.am    1  ZINC001011267435   -0.6100
     10 C10       -10.3590   -3.1650   58.5001 C.3     1  ZINC001011267435    0.0700
     11 C11       -11.1684   -2.7262   57.2734 C.3     1  ZINC001011267435    0.1000
     12 N12       -10.5028   -1.5676   56.6615 N.am    1  ZINC001011267435   -0.6200
     13 C13       -10.1477   -1.5880   55.3616 C.2     1  ZINC001011267435    0.5300
     14 O14       -10.3772   -2.5685   54.6856 O.2     1  ZINC001011267435   -0.5300
     15 C15        -9.4659   -0.3925   54.7479 C.3     1  ZINC001011267435   -0.1100
     16 H16        -8.7350    0.0090   55.4498 H       1  ZINC001011267435    0.0900
     17 C17       -10.5083    0.6807   54.4276 C.3     1  ZINC001011267435   -0.1500
     18 C18        -8.7569   -0.8152   53.4596 C.3     1  ZINC001011267435   -0.0800
     19 C19        -9.7398   -0.7438   52.2894 C.3     1  ZINC001011267435   -0.1500
     20 C20        -7.5787    0.1242   53.1941 C.3     1  ZINC001011267435   -0.1500
     21 C21       -10.2317   -0.3861   57.4925 C.3     1  ZINC001011267435    0.0900
     22 C22        -9.4274   -0.8228   58.7178 C.3     1  ZINC001011267435    0.1000
     23 C23       -11.0434    0.3286   61.4476 C.ar    1  ZINC001011267435   -0.1600
     24 C24       -10.7493    1.4275   62.2317 C.ar    1  ZINC001011267435    0.1100
     25 N25        -9.6663    1.4528   62.9824 N.ar    1  ZINC001011267435   -0.4600
     26 H26        -8.4381    1.8025   66.1500 H       1  ZINC001011267435    0.0600
     27 H27        -9.8000    0.9015   65.4417 H       1  ZINC001011267435    0.0500
     28 H28        -9.0906    0.3730   66.9862 H       1  ZINC001011267435    0.0600
     29 H29        -6.9668   -0.1670   65.8260 H       1  ZINC001011267435    0.0700
     30 H30        -8.3288   -1.0680   65.1176 H       1  ZINC001011267435    0.0600
     31 H31        -7.3117    1.5855   64.0165 H       1  ZINC001011267435    0.0800
     32 H32        -6.7669   -0.0002   63.4191 H       1  ZINC001011267435    0.0900
     33 H33        -8.3293   -1.5112   62.2961 H       1  ZINC001011267435    0.1400
     34 H34        -9.4174   -3.6092   58.1772 H       1  ZINC001011267435    0.0800
     35 H35       -10.9316   -3.8929   59.0749 H       1  ZINC001011267435    0.1100
     36 H36       -11.2145   -3.5437   56.5539 H       1  ZINC001011267435    0.1100
     37 H37       -12.1767   -2.4487   57.5806 H       1  ZINC001011267435    0.0700
     38 H38       -10.0282    1.5103   53.9088 H       1  ZINC001011267435    0.0800
     39 H39       -11.2846    0.2549   53.7917 H       1  ZINC001011267435    0.0600
     40 H40       -10.9551    1.0413   55.3541 H       1  ZINC001011267435    0.0600
     41 H41        -8.3907   -1.8365   53.5648 H       1  ZINC001011267435    0.0800
     42 H42        -9.2347   -1.0449   51.3716 H       1  ZINC001011267435    0.0600
     43 H43       -10.5792   -1.4130   52.4786 H       1  ZINC001011267435    0.0600
     44 H44       -10.1060    0.2775   52.1843 H       1  ZINC001011267435    0.0600
     45 H45        -6.8784    0.0733   54.0278 H       1  ZINC001011267435    0.0600
     46 H46        -7.0736   -0.1770   52.2764 H       1  ZINC001011267435    0.0600
     47 H47        -7.9449    1.1455   53.0890 H       1  ZINC001011267435    0.0500
     48 H48        -9.6591    0.3418   56.9178 H       1  ZINC001011267435    0.1000
     49 H49       -11.1733    0.0580   57.8153 H       1  ZINC001011267435    0.0800
     50 H50        -9.3820   -0.0044   59.4363 H       1  ZINC001011267435    0.1100
     51 H51        -8.4186   -1.1015   58.4128 H       1  ZINC001011267435    0.0800
     52 H52       -11.9348    0.3130   60.8378 H       1  ZINC001011267435    0.1500
     53 H53       -11.4180    2.2756   62.2326 H       1  ZINC001011267435    0.1700
@<TRIPOS>BOND
     1     1     2    1
     2     1    26    1
     3     1    27    1
     4     1    28    1
     5     2     3    1
     6     2    29    1
     7     2    30    1
     8     3     4    1
     9     3    31    1
    10     3    32    1
    11     4    25   ar
    12     4     5   ar
    13     5     6   ar
    14     5    33    1
    15     6     7    1
    16     6    23   ar
    17     7     8    2
    18     7     9   am
    19     9    22    1
    20     9    10    1
    21    10    11    1
    22    10    34    1
    23    10    35    1
    24    11    12    1
    25    11    36    1
    26    11    37    1
    27    12    13   am
    28    12    21    1
    29    13    14    2
    30    13    15    1
    31    15    16    1
    32    15    17    1
    33    15    18    1
    34    17    38    1
    35    17    39    1
    36    17    40    1
    37    18    19    1
    38    18    20    1
    39    18    41    1
    40    19    42    1
    41    19    43    1
    42    19    44    1
    43    20    45    1
    44    20    46    1
    45    20    47    1
    46    21    22    1
    47    21    48    1
    48    21    49    1
    49    22    50    1
    50    22    51    1
    51    23    24   ar
    52    23    52    1
    53    24    25   ar
    54    24    53    1
@<TRIPOS>SUBSTRUCTURE
     1 ZINC001011267435        1 TEMP              0 ****  ****    0 ROOT


##########                                Name:    ZINC001079355651
##########                DOCK_Rotatable_Bonds:                   5
##########                         Heavy_Atoms:                  25
##########                    Molecular_Weight:             353.851
##########                DOCK_Rotatable_Bonds:                   5
##########                       Formal_Charge:           0.0199997
##########                     HBond_Acceptors:                   5
##########                        HBond_Donors:                   1
##########                         Heavy_Atoms:                  25
##########                          Grid_Score:          -27.668661
##########                     Grid_vdw_energy:          -27.672110
##########                      Grid_es_energy:            0.003449
##########           Internal_energy_repulsive:            8.546429

@<TRIPOS>MOLECULE
ZINC001079355651
 45 47 1 0 0
SMALL
USER_CHARGES


@<TRIPOS>ATOM
      1 C1        -11.3084    1.5703   62.2992 C.3     1  ZINC001079355651   -0.1500
      2 C2         -9.8187    1.3510   62.0272 C.3     1  ZINC001079355651   -0.1000
      3 H3         -9.2569    2.2591   62.2460 H       1  ZINC001079355651    0.0900
      4 C4         -9.5986    0.9248   60.5598 C.3     1  ZINC001079355651    0.0300
      5 N5         -8.4985   -0.0717   60.6205 N.3     1  ZINC001079355651   -0.5100
      6 C6         -8.4958   -0.9262   59.4256 C.3     1  ZINC001079355651    0.1600
      7 C7         -9.8277   -1.5276   59.2494 C.1     1  ZINC001079355651   -0.1400
      8 C8        -10.8900   -2.0072   59.1089 C.1     1  ZINC001079355651   -0.1300
      9 C9        -12.1857   -2.5922   58.9376 C.ar    1  ZINC001079355651    0.0300
     10 C10       -12.3921   -3.5620   57.9558 C.ar    1  ZINC001079355651   -0.0900
     11 C11       -13.6430   -4.1223   57.7951 C.ar    1  ZINC001079355651   -0.1000
     12 C12       -14.6916   -3.7248   58.6046 C.ar    1  ZINC001079355651   -0.1000
     13 C13       -14.4941   -2.7624   59.5806 C.ar    1  ZINC001079355651   -0.0300
     14 Cl14      -15.8165   -2.2694   60.5915 Cl      1  ZINC001079355651   -0.0600
     15 C15       -13.2458   -2.1988   59.7553 C.ar    1  ZINC001079355651   -0.0900
     16 C16        -8.7915   -0.8650   61.8418 C.3     1  ZINC001079355651    0.0200
     17 C17        -9.2871    0.1753   62.8725 C.3     1  ZINC001079355651    0.1500
     18 H18       -10.0877   -0.2459   63.4807 H       1  ZINC001079355651    0.1000
     19 N19        -8.1795    0.6148   63.7248 N.am    1  ZINC001079355651   -0.7100
     20 C20        -7.9556    0.0060   64.9062 C.2     1  ZINC001079355651    0.5600
     21 O21        -8.6716   -0.9084   65.2638 O.2     1  ZINC001079355651   -0.5300
     22 C22        -6.8366    0.4516   65.7688 C.ar    1  ZINC001079355651   -0.0900
     23 C23        -6.5839   -0.1692   66.9958 C.ar    1  ZINC001079355651   -0.1400
     24 C24        -5.5299    0.2785   67.7684 C.ar    1  ZINC001079355651    0.1000
     25 N25        -4.7687    1.2754   67.3628 N.ar    1  ZINC001079355651   -0.4700
     26 C26        -4.9723    1.8879   66.2135 C.ar    1  ZINC001079355651    0.1000
     27 C27        -6.0004    1.5010   65.3758 C.ar    1  ZINC001079355651   -0.1200
     28 H28       -11.4528    1.8214   63.3500 H       1  ZINC001079355651    0.0600
     29 H29       -11.6750    2.3865   61.6768 H       1  ZINC001079355651    0.0700
     30 H30       -11.8585    0.6591   62.0644 H       1  ZINC001079355651    0.0600
     31 H31       -10.5029    0.4687   60.1568 H       1  ZINC001079355651    0.0600
     32 H32        -9.3023    1.7821   59.9554 H       1  ZINC001079355651    0.0900
     33 H33        -8.2495   -0.3256   58.5500 H       1  ZINC001079355651    0.0700
     34 H34        -7.7536   -1.7156   59.5451 H       1  ZINC001079355651    0.1100
     35 H35       -11.5745   -3.8732   57.3226 H       1  ZINC001079355651    0.1300
     36 H36       -13.8036   -4.8727   57.0353 H       1  ZINC001079355651    0.1400
     37 H37       -15.6686   -4.1663   58.4747 H       1  ZINC001079355651    0.1400
     38 H38       -13.0924   -1.4485   60.5168 H       1  ZINC001079355651    0.1400
     39 H39        -9.5694   -1.6012   61.6393 H       1  ZINC001079355651    0.0600
     40 H40        -7.8874   -1.3554   62.2025 H       1  ZINC001079355651    0.0900
     41 H41        -7.6072    1.3439   63.4388 H       1  ZINC001079355651    0.4000
     42 H42        -7.2036   -0.9862   67.3346 H       1  ZINC001079355651    0.1400
     43 H43        -5.3269   -0.1944   68.7180 H       1  ZINC001079355651    0.1600
     44 H44        -4.3239    2.7005   65.9209 H       1  ZINC001079355651    0.1700
     45 H45        -6.1613    2.0075   64.4355 H       1  ZINC001079355651    0.1500
@<TRIPOS>BOND
     1     1     2    1
     2     1    28    1
     3     1    29    1
     4     1    30    1
     5     2     3    1
     6     2    17    1
     7     2     4    1
     8     4     5    1
     9     4    31    1
    10     4    32    1
    11     5     6    1
    12     5    16    1
    13     6     7    1
    14     6    33    1
    15     6    34    1
    16     7     8    3
    17     8     9    1
    18     9    15   ar
    19     9    10   ar
    20    10    11   ar
    21    10    35    1
    22    11    12   ar
    23    11    36    1
    24    12    13   ar
    25    12    37    1
    26    13    14    1
    27    13    15   ar
    28    15    38    1
    29    16    17    1
    30    16    39    1
    31    16    40    1
    32    17    18    1
    33    17    19    1
    34    19    20   am
    35    19    41    1
    36    20    21    2
    37    20    22    1
    38    22    27   ar
    39    22    23   ar
    40    23    24   ar
    41    23    42    1
    42    24    25   ar
    43    24    43    1
    44    25    26   ar
    45    26    27   ar
    46    26    44    1
    47    27    45    1
@<TRIPOS>SUBSTRUCTURE
     1 ZINC001079355651        1 TEMP              0 ****  ****    0 ROOT


##########                                Name:    ZINC001016082614
##########                DOCK_Rotatable_Bonds:                   6
##########                         Heavy_Atoms:                  25
##########                    Molecular_Weight:             348.402
##########                DOCK_Rotatable_Bonds:                   6
##########                       Formal_Charge:         -0.00999998
##########                     HBond_Acceptors:                   8
##########                        HBond_Donors:                   1
##########                         Heavy_Atoms:                  25
##########                          Grid_Score:          -27.664703
##########                     Grid_vdw_energy:          -27.307987
##########                      Grid_es_energy:           -0.356716
##########           Internal_energy_repulsive:           47.120602

@<TRIPOS>MOLECULE
ZINC001016082614
 49 51 1 0 0
SMALL
USER_CHARGES


@<TRIPOS>ATOM
      1 C1         -0.0608    2.0974   50.6226 C.3     1  ZINC001016082614   -0.1700
      2 C2         -0.9240    2.9207   49.6644 C.3     1  ZINC001016082614    0.1000
      3 N3         -2.1217    2.1565   49.3070 N.am    1  ZINC001016082614   -0.6100
      4 C4         -3.1593    2.0896   50.1647 C.2     1  ZINC001016082614    0.6100
      5 O5         -4.1541    1.4549   49.8679 O.2     1  ZINC001016082614   -0.5100
      6 C6         -3.0892    2.7821   51.4564 C.2     1  ZINC001016082614   -0.1100
      7 C7         -4.0345    2.7695   52.4387 C.2     1  ZINC001016082614    0.0600
      8 N8         -3.5786    3.5245   53.4435 N.2     1  ZINC001016082614   -0.4900
      9 C9         -2.4037    3.9956   53.1221 C.2     1  ZINC001016082614    0.2000
     10 O10        -2.0711    3.5523   51.9058 O.3     1  ZINC001016082614   -0.1900
     11 C11        -2.1917    1.4650   48.0174 C.3     1  ZINC001016082614    0.1600
     12 H12        -3.1421    0.9343   47.9619 H       1  ZINC001016082614    0.0800
     13 C13        -2.1541    2.5089   46.9054 C.3     1  ZINC001016082614   -0.1300
     14 C14        -2.8455    1.9609   45.6814 C.3     1  ZINC001016082614   -0.1300
     15 C15        -1.8234    1.2672   44.7626 C.3     1  ZINC001016082614    0.1000
     16 N16        -0.8357    0.4783   45.5248 N.am    1  ZINC001016082614   -0.6000
     17 C17         0.4591    0.5332   45.1549 C.2     1  ZINC001016082614    0.5000
     18 O18         1.2913   -0.1050   45.7640 O.2     1  ZINC001016082614   -0.5200
     19 C19         0.8729    1.3877   43.9846 C.3     1  ZINC001016082614    0.1100
     20 H20         0.1566    1.2827   43.1697 H       1  ZINC001016082614    0.1100
     21 C21         2.2876    0.9916   43.5072 C.3     1  ZINC001016082614   -0.1200
     22 C22         3.1749    1.9856   44.2917 C.3     1  ZINC001016082614   -0.1600
     23 C23         2.2584    3.1545   44.5786 C.2     1  ZINC001016082614    0.5300
     24 O24         2.6264    4.2571   44.9247 O.2     1  ZINC001016082614   -0.5300
     25 N25         0.9748    2.7936   44.3932 N.am    1  ZINC001016082614   -0.7100
     26 C26        -1.2000   -0.3504   46.6520 C.3     1  ZINC001016082614    0.1300
     27 C27        -1.1018    0.4792   47.9563 C.3     1  ZINC001016082614   -0.1600
     28 H28         0.8303    2.6660   50.8885 H       1  ZINC001016082614    0.0700
     29 H29        -0.6312    1.8732   51.5240 H       1  ZINC001016082614    0.0500
     30 H30         0.2334    1.1665   50.1378 H       1  ZINC001016082614    0.0600
     31 H31        -1.2183    3.8516   50.1492 H       1  ZINC001016082614    0.0900
     32 H32        -0.3537    3.1450   48.7631 H       1  ZINC001016082614    0.0900
     33 H33        -4.9788    2.2461   52.4102 H       1  ZINC001016082614    0.2000
     34 H34        -1.7956    4.6376   53.7422 H       1  ZINC001016082614    0.2600
     35 H35        -2.6650    3.4127   47.2375 H       1  ZINC001016082614    0.0700
     36 H36        -1.1179    2.7447   46.6628 H       1  ZINC001016082614    0.0800
     37 H37        -3.6041    1.2403   45.9870 H       1  ZINC001016082614    0.0700
     38 H38        -3.3227    2.7775   45.1397 H       1  ZINC001016082614    0.0800
     39 H39        -2.3543    0.6045   44.0792 H       1  ZINC001016082614    0.0700
     40 H40        -1.2983    2.0253   44.1814 H       1  ZINC001016082614    0.0800
     41 H41         2.5179   -0.0378   43.7818 H       1  ZINC001016082614    0.1000
     42 H42         2.3923    1.1397   42.4323 H       1  ZINC001016082614    0.1000
     43 H43         3.5216    1.5353   45.2219 H       1  ZINC001016082614    0.1100
     44 H44         4.0208    2.3046   43.6827 H       1  ZINC001016082614    0.1100
     45 H45         0.2167    3.3865   44.5143 H       1  ZINC001016082614    0.4200
     46 H46        -2.2213   -0.7091   46.5238 H       1  ZINC001016082614    0.0800
     47 H47        -0.5216   -1.2016   46.7109 H       1  ZINC001016082614    0.0900
     48 H48        -0.1422    0.9953   47.9842 H       1  ZINC001016082614    0.0900
     49 H49        -1.1746   -0.1884   48.8148 H       1  ZINC001016082614    0.0700
@<TRIPOS>BOND
     1     1     2    1
     2     1    28    1
     3     1    29    1
     4     1    30    1
     5     2     3    1
     6     2    31    1
     7     2    32    1
     8     3     4   am
     9     3    11    1
    10     4     5    2
    11     4     6    1
    12     6    10    1
    13     6     7    2
    14     7     8    1
    15     7    33    1
    16     8     9    2
    17     9    10    1
    18     9    34    1
    19    11    12    1
    20    11    27    1
    21    11    13    1
    22    13    14    1
    23    13    35    1
    24    13    36    1
    25    14    15    1
    26    14    37    1
    27    14    38    1
    28    15    16    1
    29    15    39    1
    30    15    40    1
    31    16    17   am
    32    16    26    1
    33    17    18    2
    34    17    19    1
    35    19    20    1
    36    19    25    1
    37    19    21    1
    38    21    22    1
    39    21    41    1
    40    21    42    1
    41    22    23    1
    42    22    43    1
    43    22    44    1
    44    23    24    2
    45    23    25   am
    46    25    45    1
    47    26    27    1
    48    26    46    1
    49    26    47    1
    50    27    48    1
    51    27    49    1
@<TRIPOS>SUBSTRUCTURE
     1 ZINC001016082614        1 TEMP              0 ****  ****    0 ROOT


##########                                Name:    ZINC000442864105
##########                DOCK_Rotatable_Bonds:                   7
##########                         Heavy_Atoms:                  30
##########                    Molecular_Weight:              414.39
##########                DOCK_Rotatable_Bonds:                   7
##########                       Formal_Charge:           0.0200001
##########                     HBond_Acceptors:                  10
##########                        HBond_Donors:                   2
##########                         Heavy_Atoms:                  30
##########                          Grid_Score:          -27.638809
##########                     Grid_vdw_energy:          -26.562277
##########                      Grid_es_energy:           -1.076531
##########           Internal_energy_repulsive:           11.499813

@<TRIPOS>MOLECULE
ZINC000442864105
 47 50 1 0 0
SMALL
USER_CHARGES


@<TRIPOS>ATOM
      1 C1         -7.5126   -0.4381   63.8967 C.3     1  ZINC000442864105    0.0800
      2 N2         -8.7784    0.1633   63.4697 N.pl3   1  ZINC000442864105   -0.4900
      3 C3         -9.5463    1.0050   64.2305 C.2     1  ZINC000442864105    0.0300
      4 C4        -10.6379    1.3745   63.5433 C.2     1  ZINC000442864105   -0.1900
      5 C5        -10.5647    0.7165   62.2356 C.ar    1  ZINC000442864105   -0.1600
      6 C6        -11.3874    0.7097   61.1074 C.ar    1  ZINC000442864105   -0.0200
      7 C7        -11.0341   -0.0259   60.0125 C.ar    1  ZINC000442864105   -0.2100
      8 C8         -9.8563   -0.7716   60.0122 C.ar    1  ZINC000442864105    0.2400
      9 N9         -9.5089   -1.5194   58.8833 N.pl3   1  ZINC000442864105   -0.7400
     10 C10       -10.5124   -2.3580   58.2231 C.3     1  ZINC000442864105    0.1100
     11 C11       -10.4404   -2.1482   56.7325 C.2     1  ZINC000442864105    0.5100
     12 O12        -9.8710   -2.9588   56.0326 O.2     1  ZINC000442864105   -0.5100
     13 N13       -11.0087   -1.0596   56.1770 N.am    1  ZINC000442864105   -0.6600
     14 C14       -10.9419   -0.8647   54.7925 C.ar    1  ZINC000442864105    0.1600
     15 C15        -9.7118   -0.7110   54.1702 C.ar    1  ZINC000442864105   -0.0700
     16 C16        -9.6482   -0.5186   52.8031 C.ar    1  ZINC000442864105   -0.1600
     17 C17        -8.3107   -0.3521   52.1292 C.3     1  ZINC000442864105    0.5100
     18 F18        -7.5668    0.6222   52.8035 F       1  ZINC000442864105   -0.1700
     19 F19        -7.6199   -1.5683   52.1569 F       1  ZINC000442864105   -0.1700
     20 F20        -8.5036    0.0445   50.8015 F       1  ZINC000442864105   -0.1700
     21 C21       -10.8085   -0.4790   52.0517 C.ar    1  ZINC000442864105   -0.0600
     22 C22       -12.0385   -0.6306   52.6634 C.ar    1  ZINC000442864105   -0.1100
     23 C23       -12.1116   -0.8299   54.0338 C.ar    1  ZINC000442864105    0.1500
     24 N24       -13.3587   -0.9840   54.6566 N.pl3   1  ZINC000442864105   -0.3300
     25 C25       -14.5003   -0.3387   54.3490 C.2     1  ZINC000442864105    0.2800
     26 N26       -15.4364   -0.7623   55.1596 N.2     1  ZINC000442864105   -0.5300
     27 C27       -14.9347   -1.6725   55.9934 C.2     1  ZINC000442864105    0.2300
     28 N28       -13.6675   -1.8465   55.7213 N.2     1  ZINC000442864105   -0.3400
     29 C29        -9.0277   -0.7767   61.1211 C.ar    1  ZINC000442864105   -0.2100
     30 C30        -9.3710   -0.0285   62.2415 C.ar    1  ZINC000442864105    0.1500
     31 H31        -6.6880    0.2228   63.6297 H       1  ZINC000442864105    0.0700
     32 H32        -7.5259   -0.5844   64.9767 H       1  ZINC000442864105    0.0800
     33 H33        -7.3820   -1.4002   63.4013 H       1  ZINC000442864105    0.0800
     34 H34        -9.3082    1.3239   65.2345 H       1  ZINC000442864105    0.1700
     35 H35       -11.4222    2.0319   63.8886 H       1  ZINC000442864105    0.1400
     36 H36       -12.3016    1.2847   61.1010 H       1  ZINC000442864105    0.1200
     37 H37       -11.6718   -0.0305   59.1409 H       1  ZINC000442864105    0.1200
     38 H38        -8.6036   -1.4829   58.5371 H       1  ZINC000442864105    0.4100
     39 H39       -10.3179   -3.4057   58.4522 H       1  ZINC000442864105    0.1000
     40 H40       -11.5054   -2.0861   58.5807 H       1  ZINC000442864105    0.1000
     41 H41       -11.4642   -0.4114   56.7366 H       1  ZINC000442864105    0.4300
     42 H42        -8.8037   -0.7415   54.7541 H       1  ZINC000442864105    0.1700
     43 H43       -10.7532   -0.3287   50.9836 H       1  ZINC000442864105    0.1500
     44 H44       -12.9426   -0.5988   52.0735 H       1  ZINC000442864105    0.1500
     45 H45       -14.6217    0.3996   53.5702 H       1  ZINC000442864105    0.2300
     46 H46       -15.4865   -2.1868   56.7664 H       1  ZINC000442864105    0.2300
     47 H47        -8.1165   -1.3564   61.1145 H       1  ZINC000442864105    0.1200
@<TRIPOS>BOND
     1     1     2    1
     2     1    31    1
     3     1    32    1
     4     1    33    1
     5     2    30    1
     6     2     3    1
     7     3     4    2
     8     3    34    1
     9     4     5    1
    10     4    35    1
    11     5    30   ar
    12     5     6   ar
    13     6     7   ar
    14     6    36    1
    15     7     8   ar
    16     7    37    1
    17     8     9    1
    18     8    29   ar
    19     9    10    1
    20     9    38    1
    21    10    11    1
    22    10    39    1
    23    10    40    1
    24    11    12    2
    25    11    13   am
    26    13    14    1
    27    13    41    1
    28    14    23   ar
    29    14    15   ar
    30    15    16   ar
    31    15    42    1
    32    16    17    1
    33    16    21   ar
    34    17    18    1
    35    17    19    1
    36    17    20    1
    37    21    22   ar
    38    21    43    1
    39    22    23   ar
    40    22    44    1
    41    23    24    1
    42    24    28    1
    43    24    25    1
    44    25    26    2
    45    25    45    1
    46    26    27    1
    47    27    28    2
    48    27    46    1
    49    29    30   ar
    50    29    47    1
@<TRIPOS>SUBSTRUCTURE
     1 ZINC000442864105        1 TEMP              0 ****  ****    0 ROOT


##########                                Name:    ZINC000518234532
##########                DOCK_Rotatable_Bonds:                   5
##########                         Heavy_Atoms:                  25
##########                    Molecular_Weight:             408.267
##########                DOCK_Rotatable_Bonds:                   5
##########                       Formal_Charge:         -0.00999981
##########                     HBond_Acceptors:                   5
##########                        HBond_Donors:                   1
##########                         Heavy_Atoms:                  25
##########                          Grid_Score:          -27.634808
##########                     Grid_vdw_energy:          -26.687155
##########                      Grid_es_energy:           -0.947652
##########           Internal_energy_repulsive:           17.194422

@<TRIPOS>MOLECULE
ZINC000518234532
 44 46 1 0 0
SMALL
USER_CHARGES


@<TRIPOS>ATOM
      1 C1          0.2797   -0.5573   48.8253 C.3     1  ZINC000518234532   -0.1600
      2 C2          0.3489    0.9710   48.7978 C.3     1  ZINC000518234532    0.1800
      3 H3          1.3897    1.2887   48.8601 H       1  ZINC000518234532    0.1100
      4 N4         -0.2384    1.4640   47.5495 N.am    1  ZINC000518234532   -0.7300
      5 C5          0.1476    2.6535   47.0469 C.2     1  ZINC000518234532    0.5200
      6 O6          0.9821    3.3151   47.6274 O.2     1  ZINC000518234532   -0.5200
      7 C7         -0.4579    3.1615   45.7638 C.3     1  ZINC000518234532   -0.0700
      8 H8          0.2520    3.8196   45.2626 H       1  ZINC000518234532    0.1100
      9 C9         -1.7392    3.9368   46.0763 C.3     1  ZINC000518234532   -0.1400
     10 C10        -0.7826    1.9958   44.8656 C.ar    1  ZINC000518234532   -0.1000
     11 C11        -1.9210    1.2458   45.0909 C.ar    1  ZINC000518234532   -0.0600
     12 C12        -2.2192    0.1762   44.2669 C.ar    1  ZINC000518234532   -0.1300
     13 C13        -1.3787   -0.1445   43.2174 C.ar    1  ZINC000518234532   -0.0900
     14 C14        -0.2391    0.6040   42.9905 C.ar    1  ZINC000518234532   -0.1600
     15 C15         0.0569    1.6792   43.8107 C.ar    1  ZINC000518234532    0.1000
     16 F16         1.1705    2.4116   43.5898 F       1  ZINC000518234532   -0.1400
     17 C17        -0.4179    1.5296   49.9686 C.ar    1  ZINC000518234532   -0.0600
     18 C18        -1.7764    1.7574   49.8582 C.ar    1  ZINC000518234532   -0.1100
     19 C19        -2.4850    2.2708   50.9344 C.ar    1  ZINC000518234532    0.0800
     20 C20        -1.8258    2.5534   52.1247 C.ar    1  ZINC000518234532    0.0600
     21 C21        -0.4620    2.3239   52.2294 C.ar    1  ZINC000518234532   -0.0800
     22 C22         0.2381    1.8083   51.1542 C.ar    1  ZINC000518234532   -0.0800
     23 Br23        2.0973    1.4955   51.3006 Br      1  ZINC000518234532   -0.0300
     24 O24        -2.5037    3.0502   53.1953 O.3     1  ZINC000518234532   -0.3000
     25 C25        -3.7929    3.6158   52.9348 C.3     1  ZINC000518234532    0.0200
     26 C26        -4.5646    2.6530   52.0222 C.3     1  ZINC000518234532    0.0200
     27 O27        -3.8221    2.4935   50.8087 O.3     1  ZINC000518234532   -0.3000
     28 H28         0.8343   -0.9614   47.9784 H       1  ZINC000518234532    0.0700
     29 H29         0.7166   -0.9240   49.7541 H       1  ZINC000518234532    0.0700
     30 H30        -0.7610   -0.8751   48.7630 H       1  ZINC000518234532    0.0600
     31 H31        -0.9049    0.9343   47.0846 H       1  ZINC000518234532    0.4000
     32 H32        -1.5045    4.7800   46.7260 H       1  ZINC000518234532    0.0700
     33 H33        -2.1772    4.3042   45.1482 H       1  ZINC000518234532    0.0700
     34 H34        -2.4491    3.2787   46.5775 H       1  ZINC000518234532    0.0700
     35 H35        -2.5781    1.4949   45.9110 H       1  ZINC000518234532    0.1300
     36 H36        -3.1091   -0.4094   44.4437 H       1  ZINC000518234532    0.1300
     37 H37        -1.6124   -0.9804   42.5747 H       1  ZINC000518234532    0.1300
     38 H38         0.4178    0.3529   42.1708 H       1  ZINC000518234532    0.1400
     39 H39        -2.2871    1.5357   48.9327 H       1  ZINC000518234532    0.1400
     40 H40         0.0530    2.5447   53.1526 H       1  ZINC000518234532    0.1500
     41 H41        -4.3333    3.7462   53.8724 H       1  ZINC000518234532    0.1300
     42 H42        -3.6781    4.5796   52.4390 H       1  ZINC000518234532    0.0800
     43 H43        -4.6742    1.6872   52.5156 H       1  ZINC000518234532    0.0800
     44 H44        -5.5483    3.0664   51.7998 H       1  ZINC000518234532    0.1300
@<TRIPOS>BOND
     1     1     2    1
     2     1    28    1
     3     1    29    1
     4     1    30    1
     5     2     3    1
     6     2     4    1
     7     2    17    1
     8     4     5   am
     9     4    31    1
    10     5     6    2
    11     5     7    1
    12     7     8    1
    13     7     9    1
    14     7    10    1
    15     9    32    1
    16     9    33    1
    17     9    34    1
    18    10    15   ar
    19    10    11   ar
    20    11    12   ar
    21    11    35    1
    22    12    13   ar
    23    12    36    1
    24    13    14   ar
    25    13    37    1
    26    14    15   ar
    27    14    38    1
    28    15    16    1
    29    17    22   ar
    30    17    18   ar
    31    18    19   ar
    32    18    39    1
    33    19    27    1
    34    19    20   ar
    35    20    21   ar
    36    20    24    1
    37    21    22   ar
    38    21    40    1
    39    22    23    1
    40    24    25    1
    41    25    26    1
    42    25    41    1
    43    25    42    1
    44    26    27    1
    45    26    43    1
    46    26    44    1
@<TRIPOS>SUBSTRUCTURE
     1 ZINC000518234532        1 TEMP              0 ****  ****    0 ROOT


##########                                Name:    ZINC000469435497
##########                DOCK_Rotatable_Bonds:                   6
##########                         Heavy_Atoms:                  27
##########                    Molecular_Weight:             364.444
##########                DOCK_Rotatable_Bonds:                   6
##########                       Formal_Charge:           0.0300001
##########                     HBond_Acceptors:                   5
##########                        HBond_Donors:                   2
##########                         Heavy_Atoms:                  27
##########                          Grid_Score:          -27.615833
##########                     Grid_vdw_energy:          -27.019197
##########                      Grid_es_energy:           -0.596636
##########           Internal_energy_repulsive:            4.968236

@<TRIPOS>MOLECULE
ZINC000469435497
 51 54 1 0 0
SMALL
USER_CHARGES


@<TRIPOS>ATOM
      1 C1         -9.5891    1.6629   65.5659 C.3     1  ZINC000469435497   -0.1600
      2 C2         -8.2211    1.6958   64.8816 C.3     1  ZINC000469435497    0.1000
      3 C3         -7.1539    2.2392   65.8339 C.3     1  ZINC000469435497   -0.1400
      4 C4         -7.8340    0.2908   64.3627 C.3     1  ZINC000469435497   -0.1000
      5 C5         -8.3435    0.3323   62.9350 C.ar    1  ZINC000469435497   -0.1500
      6 C6         -8.5717   -0.6587   62.0073 C.ar    1  ZINC000469435497   -0.0700
      7 C7         -9.0588   -0.3306   60.7479 C.ar    1  ZINC000469435497    0.1100
      8 N8         -9.2934   -1.3349   59.7995 N.am    1  ZINC000469435497   -0.6600
      9 C9        -10.4144   -2.0798   59.8701 C.2     1  ZINC000469435497    0.5100
     10 O10       -11.2200   -1.8808   60.7547 O.2     1  ZINC000469435497   -0.5200
     11 C11       -10.6669   -3.1600   58.8500 C.3     1  ZINC000469435497    0.1000
     12 N12       -10.3944   -2.6383   57.5085 N.am    1  ZINC000469435497   -0.7200
     13 C13       -11.4027   -2.1557   56.7556 C.2     1  ZINC000469435497    0.5700
     14 O14       -12.5383   -2.1547   57.1891 O.2     1  ZINC000469435497   -0.5300
     15 C15       -11.1275   -1.6275   55.4024 C.ar    1  ZINC000469435497   -0.1400
     16 C16       -12.1664   -1.1141   54.6249 C.ar    1  ZINC000469435497   -0.0800
     17 C17       -11.9005   -0.6237   53.3643 C.ar    1  ZINC000469435497   -0.1100
     18 C18       -10.6077   -0.6376   52.8643 C.ar    1  ZINC000469435497   -0.0700
     19 C19       -10.0701   -0.1642   51.5302 C.3     1  ZINC000469435497   -0.0900
     20 C20        -8.5457   -0.0324   51.7324 C.3     1  ZINC000469435497   -0.1200
     21 C21        -8.2719   -1.0470   52.8626 C.3     1  ZINC000469435497   -0.0800
     22 C22        -9.5729   -1.1455   53.6306 C.ar    1  ZINC000469435497   -0.1100
     23 C23        -9.8272   -1.6343   54.8979 C.ar    1  ZINC000469435497   -0.0400
     24 C24        -9.3118    0.9980   60.4349 C.ar    1  ZINC000469435497   -0.1000
     25 C25        -9.0782    1.9884   61.3657 C.ar    1  ZINC000469435497   -0.1200
     26 C26        -8.5872    1.6652   62.6281 C.ar    1  ZINC000469435497    0.1000
     27 O27        -8.2734    2.4773   63.6760 O.3     1  ZINC000469435497   -0.3000
     28 H28       -10.3275    1.2442   64.8821 H       1  ZINC000469435497    0.0600
     29 H29        -9.5324    1.0450   66.4620 H       1  ZINC000469435497    0.0800
     30 H30        -9.8821    2.6761   65.8413 H       1  ZINC000469435497    0.0700
     31 H31        -7.0838    1.5922   66.7083 H       1  ZINC000469435497    0.0800
     32 H32        -6.1912    2.2659   65.3235 H       1  ZINC000469435497    0.0700
     33 H33        -7.4266    3.2466   66.1483 H       1  ZINC000469435497    0.0700
     34 H34        -6.7533    0.1508   64.3868 H       1  ZINC000469435497    0.0900
     35 H35        -8.3390   -0.4882   64.9340 H       1  ZINC000469435497    0.0900
     36 H36        -8.3720   -1.6901   62.2578 H       1  ZINC000469435497    0.1400
     37 H37        -8.6492   -1.4940   59.0920 H       1  ZINC000469435497    0.4200
     38 H38       -10.0123   -4.0084   59.0498 H       1  ZINC000469435497    0.1100
     39 H39       -11.7067   -3.4812   58.9107 H       1  ZINC000469435497    0.1100
     40 H40        -9.4884   -2.6401   57.1621 H       1  ZINC000469435497    0.4100
     41 H41       -13.1756   -1.1012   55.0094 H       1  ZINC000469435497    0.1300
     42 H42       -12.7045   -0.2267   52.7623 H       1  ZINC000469435497    0.1300
     43 H43       -10.2865   -0.8978   50.7535 H       1  ZINC000469435497    0.0900
     44 H44       -10.5020    0.8021   51.2697 H       1  ZINC000469435497    0.0800
     45 H45        -8.0091   -0.3091   50.8249 H       1  ZINC000469435497    0.0800
     46 H46        -8.2827    0.9777   52.0465 H       1  ZINC000469435497    0.0700
     47 H47        -8.0057   -2.0173   52.4434 H       1  ZINC000469435497    0.0800
     48 H48        -7.4758   -0.6836   53.5124 H       1  ZINC000469435497    0.0800
     49 H49        -9.0183   -2.0253   55.4974 H       1  ZINC000469435497    0.1400
     50 H50        -9.6931    1.2572   59.4582 H       1  ZINC000469435497    0.1400
     51 H51        -9.2773    3.0197   61.1145 H       1  ZINC000469435497    0.1300
@<TRIPOS>BOND
     1     1     2    1
     2     1    28    1
     3     1    29    1
     4     1    30    1
     5     2    27    1
     6     2     3    1
     7     2     4    1
     8     3    31    1
     9     3    32    1
    10     3    33    1
    11     4     5    1
    12     4    34    1
    13     4    35    1
    14     5    26   ar
    15     5     6   ar
    16     6     7   ar
    17     6    36    1
    18     7     8    1
    19     7    24   ar
    20     8     9   am
    21     8    37    1
    22     9    10    2
    23     9    11    1
    24    11    12    1
    25    11    38    1
    26    11    39    1
    27    12    13   am
    28    12    40    1
    29    13    14    2
    30    13    15    1
    31    15    23   ar
    32    15    16   ar
    33    16    17   ar
    34    16    41    1
    35    17    18   ar
    36    17    42    1
    37    18    22   ar
    38    18    19    1
    39    19    20    1
    40    19    43    1
    41    19    44    1
    42    20    21    1
    43    20    45    1
    44    20    46    1
    45    21    22    1
    46    21    47    1
    47    21    48    1
    48    22    23   ar
    49    23    49    1
    50    24    25   ar
    51    24    50    1
    52    25    26   ar
    53    25    51    1
    54    26    27    1
@<TRIPOS>SUBSTRUCTURE
     1 ZINC000469435497        1 TEMP              0 ****  ****    0 ROOT


##########                                Name:    ZINC000438893617
##########                DOCK_Rotatable_Bonds:                   5
##########                         Heavy_Atoms:                  29
##########                    Molecular_Weight:             412.596
##########                DOCK_Rotatable_Bonds:                   5
##########                       Formal_Charge:           0.0600001
##########                     HBond_Acceptors:                   5
##########                        HBond_Donors:                   0
##########                         Heavy_Atoms:                  29
##########                          Grid_Score:          -27.612867
##########                     Grid_vdw_energy:          -26.889227
##########                      Grid_es_energy:           -0.723641
##########           Internal_energy_repulsive:          167.785294

@<TRIPOS>MOLECULE
ZINC000438893617
 61 66 1 0 0
SMALL
USER_CHARGES


@<TRIPOS>ATOM
      1 C1         -7.8621    1.0579   55.1081 C.3     1  ZINC000438893617   -0.1000
      2 C2         -8.2889   -0.1221   54.2737 C.2     1  ZINC000438893617   -0.0900
      3 C3         -8.0746   -0.1860   52.9586 C.2     1  ZINC000438893617   -0.1600
      4 C4         -7.3946    0.8783   52.1365 C.3     1  ZINC000438893617   -0.0400
      5 H5         -7.9195    1.8316   52.0748 H       1  ZINC000438893617    0.1400
      6 C6         -6.6068    0.4247   50.9059 C.3     1  ZINC000438893617   -0.1400
      7 C7         -5.8652    0.9138   52.1525 C.3     1  ZINC000438893617   -0.1800
      8 H8         -5.3507    0.1672   52.7573 H       1  ZINC000438893617    0.1300
      9 C9         -5.1991    2.2638   52.0810 C.2     1  ZINC000438893617    0.5500
     10 O10        -5.6108    3.1798   52.7609 O.2     1  ZINC000438893617   -0.5300
     11 N11        -4.1459    2.4530   51.2616 N.am    1  ZINC000438893617   -0.6100
     12 C12        -3.6413    1.3543   50.4263 C.3     1  ZINC000438893617    0.0900
     13 C13        -3.6304    1.8158   48.9637 C.3     1  ZINC000438893617    0.1000
     14 N14        -2.9664    3.1248   48.8892 N.am    1  ZINC000438893617   -0.6100
     15 C15        -1.9138    3.3143   48.0691 C.2     1  ZINC000438893617    0.5300
     16 O16        -1.3740    4.3991   48.0161 O.2     1  ZINC000438893617   -0.5300
     17 C17        -1.4077    2.1783   47.2179 C.3     1  ZINC000438893617   -0.0700
     18 C18        -2.5381    1.6702   46.3208 C.3     1  ZINC000438893617   -0.1100
     19 C19        -2.0242    0.5169   45.4568 C.3     1  ZINC000438893617   -0.0800
     20 C20        -1.5391   -0.6195   46.3590 C.3     1  ZINC000438893617   -0.1100
     21 C21        -0.4087   -0.1114   47.2560 C.3     1  ZINC000438893617   -0.0800
     22 C22         0.7506    0.3799   46.3868 C.3     1  ZINC000438893617   -0.1100
     23 C23         0.2655    1.5163   45.4845 C.3     1  ZINC000438893617   -0.0900
     24 C24        -0.8650    1.0081   44.5874 C.3     1  ZINC000438893617   -0.1100
     25 C25        -0.2485    2.6696   46.3486 C.3     1  ZINC000438893617   -0.0900
     26 C26        -0.9225    1.0419   48.1202 C.3     1  ZINC000438893617   -0.1200
     27 C27        -3.4710    4.2236   49.7246 C.3     1  ZINC000438893617    0.0700
     28 C28        -3.4854    3.7635   51.1831 C.3     1  ZINC000438893617    0.1000
     29 S29        -8.7066   -1.7026   52.3311 S.3     1  ZINC000438893617    0.1000
     30 C30        -9.2421   -2.1788   53.9373 C.2     1  ZINC000438893617   -0.2100
     31 C31        -8.9280   -1.2244   54.8147 C.2     1  ZINC000438893617   -0.1300
     32 H32        -6.8487    0.8956   55.4754 H       1  ZINC000438893617    0.0700
     33 H33        -7.8875    1.9617   54.4993 H       1  ZINC000438893617    0.0700
     34 H34        -8.5412    1.1699   55.9533 H       1  ZINC000438893617    0.0700
     35 H35        -6.5802   -0.6435   50.6910 H       1  ZINC000438893617    0.1100
     36 H36        -6.6130    1.0798   50.0347 H       1  ZINC000438893617    0.1100
     37 H37        -2.6288    1.0948   50.7355 H       1  ZINC000438893617    0.0800
     38 H38        -4.2922    0.4863   50.5310 H       1  ZINC000438893617    0.1000
     39 H39        -3.0848    1.0937   48.3562 H       1  ZINC000438893617    0.1100
     40 H40        -4.6543    1.9038   48.6002 H       1  ZINC000438893617    0.0700
     41 H41        -3.3640    1.3202   46.9402 H       1  ZINC000438893617    0.0800
     42 H42        -2.8837    2.4798   45.6781 H       1  ZINC000438893617    0.0700
     43 H43        -2.8296    0.1548   44.8177 H       1  ZINC000438893617    0.0800
     44 H44        -2.3650   -0.9696   46.9784 H       1  ZINC000438893617    0.0600
     45 H45        -1.1731   -1.4412   45.7434 H       1  ZINC000438893617    0.0700
     46 H46        -0.0631   -0.9210   47.8988 H       1  ZINC000438893617    0.0800
     47 H47         1.5560    0.7419   47.0258 H       1  ZINC000438893617    0.0600
     48 H48         1.1167   -0.4417   45.7712 H       1  ZINC000438893617    0.0700
     49 H49         1.0914    1.8664   44.8652 H       1  ZINC000438893617    0.0700
     50 H50        -0.4989    0.1865   43.9718 H       1  ZINC000438893617    0.0700
     51 H51        -1.2106    1.8178   43.9446 H       1  ZINC000438893617    0.0600
     52 H52        -0.5941    3.4793   45.7058 H       1  ZINC000438893617    0.0700
     53 H53         0.5569    3.0317   46.9878 H       1  ZINC000438893617    0.0700
     54 H54        -0.1171    1.4039   48.7593 H       1  ZINC000438893617    0.0700
     55 H55        -1.7483    0.6919   48.7395 H       1  ZINC000438893617    0.0800
     56 H56        -2.8202    5.0915   49.6198 H       1  ZINC000438893617    0.1300
     57 H57        -4.4835    4.4830   49.4153 H       1  ZINC000438893617    0.0800
     58 H58        -4.0312    4.4865   51.7893 H       1  ZINC000438893617    0.1100
     59 H59        -2.4624    3.6741   51.5486 H       1  ZINC000438893617    0.0700
     60 H60        -9.7442   -3.1043   54.1772 H       1  ZINC000438893617    0.1700
     61 H61        -9.1617   -1.3022   55.8662 H       1  ZINC000438893617    0.1400
@<TRIPOS>BOND
     1     1     2    1
     2     1    32    1
     3     1    33    1
     4     1    34    1
     5     2    31    1
     6     2     3    2
     7     3     4    1
     8     3    29    1
     9     4     5    1
    10     4     7    1
    11     4     6    1
    12     6     7    1
    13     6    35    1
    14     6    36    1
    15     7     8    1
    16     7     9    1
    17     9    10    2
    18     9    11   am
    19    11    28    1
    20    11    12    1
    21    12    13    1
    22    12    37    1
    23    12    38    1
    24    13    14    1
    25    13    39    1
    26    13    40    1
    27    14    15   am
    28    14    27    1
    29    15    16    2
    30    15    17    1
    31    17    25    1
    32    17    26    1
    33    17    18    1
    34    18    19    1
    35    18    41    1
    36    18    42    1
    37    19    24    1
    38    19    20    1
    39    19    43    1
    40    20    21    1
    41    20    44    1
    42    20    45    1
    43    21    22    1
    44    21    26    1
    45    21    46    1
    46    22    23    1
    47    22    47    1
    48    22    48    1
    49    23    24    1
    50    23    25    1
    51    23    49    1
    52    24    50    1
    53    24    51    1
    54    25    52    1
    55    25    53    1
    56    26    54    1
    57    26    55    1
    58    27    28    1
    59    27    56    1
    60    27    57    1
    61    28    58    1
    62    28    59    1
    63    29    30    1
    64    30    31    2
    65    30    60    1
    66    31    61    1
@<TRIPOS>SUBSTRUCTURE
     1 ZINC000438893617        1 TEMP              0 ****  ****    0 ROOT


##########                                Name:    ZINC000192150625
##########                DOCK_Rotatable_Bonds:                   5
##########                         Heavy_Atoms:                  28
##########                    Molecular_Weight:             377.443
##########                DOCK_Rotatable_Bonds:                   5
##########                       Formal_Charge:           0.0199997
##########                     HBond_Acceptors:                   6
##########                        HBond_Donors:                   1
##########                         Heavy_Atoms:                  28
##########                          Grid_Score:          -27.601599
##########                     Grid_vdw_energy:          -28.594215
##########                      Grid_es_energy:            0.992616
##########           Internal_energy_repulsive:           15.025756

@<TRIPOS>MOLECULE
ZINC000192150625
 51 54 1 0 0
SMALL
USER_CHARGES


@<TRIPOS>ATOM
      1 C1         -3.8676    1.8407   50.3236 C.3     1  ZINC000192150625   -0.0800
      2 C2         -4.9532    1.5222   51.3192 C.2     1  ZINC000192150625    0.0400
      3 C3         -5.2905    2.2962   52.3596 C.2     1  ZINC000192150625   -0.1800
      4 C4         -4.6714    3.6150   52.7448 C.3     1  ZINC000192150625   -0.0800
      5 C5         -6.3849    1.6014   53.0487 C.ar    1  ZINC000192150625   -0.1000
      6 C6         -7.1555    1.8780   54.1762 C.ar    1  ZINC000192150625   -0.0700
      7 C7         -8.1371    0.9842   54.5681 C.ar    1  ZINC000192150625    0.1200
      8 N8         -8.9159    1.2536   55.6984 N.am    1  ZINC000192150625   -0.6400
      9 C9         -8.4035    1.0641   56.9305 C.2     1  ZINC000192150625    0.5100
     10 O10        -7.2662    0.6598   57.0593 O.2     1  ZINC000192150625   -0.4900
     11 C11        -9.2349    1.3518   58.1373 C.2     1  ZINC000192150625    0.5100
     12 O12        -9.3624    2.4936   58.5283 O.2     1  ZINC000192150625   -0.5200
     13 N13        -9.8438    0.3433   58.7921 N.am    1  ZINC000192150625   -0.5800
     14 C14       -10.6699    0.6111   59.9772 C.3     1  ZINC000192150625    0.0500
     15 C15       -12.0515   -0.0165   59.7673 C.3     1  ZINC000192150625   -0.1200
     16 C16       -11.8879   -1.5020   59.4378 C.3     1  ZINC000192150625   -0.0500
     17 C17       -13.2467   -2.1303   59.2640 C.ar    1  ZINC000192150625   -0.0300
     18 C18       -13.6464   -2.6276   58.0331 C.ar    1  ZINC000192150625   -0.1700
     19 C19       -14.8999   -3.1970   57.9117 C.ar    1  ZINC000192150625    0.1000
     20 N20       -15.7112   -3.2694   58.9488 N.ar    1  ZINC000192150625   -0.4900
     21 C21       -15.3645   -2.8068   60.1341 C.ar    1  ZINC000192150625    0.1000
     22 C22       -14.1245   -2.2298   60.3326 C.ar    1  ZINC000192150625   -0.1700
     23 C23       -11.0866   -1.6537   58.1429 C.3     1  ZINC000192150625   -0.1200
     24 C24        -9.6990   -1.0441   58.3309 C.3     1  ZINC000192150625    0.1100
     25 C25        -8.3511   -0.1835   53.8382 C.ar    1  ZINC000192150625   -0.1100
     26 C26        -7.5927   -0.4625   52.7228 C.ar    1  ZINC000192150625   -0.0800
     27 C27        -6.6031    0.4231   52.3147 C.ar    1  ZINC000192150625    0.0500
     28 O28        -5.7270    0.4234   51.2886 O.3     1  ZINC000192150625   -0.1900
     29 H29        -3.8103    1.0444   49.5815 H       1  ZINC000192150625    0.0800
     30 H30        -4.0949    2.7841   49.8275 H       1  ZINC000192150625    0.0900
     31 H31        -2.9122    1.9237   50.8419 H       1  ZINC000192150625    0.0900
     32 H32        -5.2055    4.4257   52.2491 H       1  ZINC000192150625    0.0700
     33 H33        -4.7355    3.7448   53.8251 H       1  ZINC000192150625    0.0700
     34 H34        -3.6253    3.6284   52.4387 H       1  ZINC000192150625    0.0700
     35 H35        -6.9877    2.7834   54.7406 H       1  ZINC000192150625    0.1400
     36 H36        -9.8247    1.5767   55.5955 H       1  ZINC000192150625    0.4300
     37 H37       -10.1994    0.1727   60.8574 H       1  ZINC000192150625    0.0700
     38 H38       -10.7745    1.6874   60.1142 H       1  ZINC000192150625    0.1600
     39 H39       -12.6423    0.0916   60.6769 H       1  ZINC000192150625    0.0800
     40 H40       -12.5576    0.4855   58.9426 H       1  ZINC000192150625    0.0700
     41 H41       -11.3597   -1.9984   60.2518 H       1  ZINC000192150625    0.0900
     42 H42       -12.9868   -2.5706   57.1799 H       1  ZINC000192150625    0.1300
     43 H43       -15.2188   -3.5867   56.9563 H       1  ZINC000192150625    0.1600
     44 H44       -16.0559   -2.8835   60.9601 H       1  ZINC000192150625    0.1600
     45 H45       -13.8461   -1.8531   61.3058 H       1  ZINC000192150625    0.1300
     46 H46       -10.9904   -2.7112   57.8964 H       1  ZINC000192150625    0.0800
     47 H47       -11.6017   -1.1364   57.3335 H       1  ZINC000192150625    0.0700
     48 H48        -9.1609   -1.0612   57.3831 H       1  ZINC000192150625    0.1000
     49 H49        -9.1469   -1.6154   59.0771 H       1  ZINC000192150625    0.0800
     50 H50        -9.1185   -0.8764   54.1503 H       1  ZINC000192150625    0.1400
     51 H51        -7.7673   -1.3705   52.1648 H       1  ZINC000192150625    0.1400
@<TRIPOS>BOND
     1     1     2    1
     2     1    29    1
     3     1    30    1
     4     1    31    1
     5     2    28    1
     6     2     3    2
     7     3     4    1
     8     3     5    1
     9     4    32    1
    10     4    33    1
    11     4    34    1
    12     5    27   ar
    13     5     6   ar
    14     6     7   ar
    15     6    35    1
    16     7     8    1
    17     7    25   ar
    18     8     9   am
    19     8    36    1
    20     9    10    2
    21     9    11    1
    22    11    12    2
    23    11    13   am
    24    13    24    1
    25    13    14    1
    26    14    15    1
    27    14    37    1
    28    14    38    1
    29    15    16    1
    30    15    39    1
    31    15    40    1
    32    16    17    1
    33    16    23    1
    34    16    41    1
    35    17    22   ar
    36    17    18   ar
    37    18    19   ar
    38    18    42    1
    39    19    20   ar
    40    19    43    1
    41    20    21   ar
    42    21    22   ar
    43    21    44    1
    44    22    45    1
    45    23    24    1
    46    23    46    1
    47    23    47    1
    48    24    48    1
    49    24    49    1
    50    25    26   ar
    51    25    50    1
    52    26    27   ar
    53    26    51    1
    54    27    28    1
@<TRIPOS>SUBSTRUCTURE
     1 ZINC000192150625        1 TEMP              0 ****  ****    0 ROOT


##########                                Name:    ZINC001176298561
##########                DOCK_Rotatable_Bonds:                   6
##########                         Heavy_Atoms:                  23
##########                    Molecular_Weight:             337.781
##########                DOCK_Rotatable_Bonds:                   6
##########                       Formal_Charge:          -0.0100003
##########                     HBond_Acceptors:                   7
##########                        HBond_Donors:                   2
##########                         Heavy_Atoms:                  23
##########                          Grid_Score:          -27.540720
##########                     Grid_vdw_energy:          -26.069107
##########                      Grid_es_energy:           -1.471613
##########           Internal_energy_repulsive:            9.242536

@<TRIPOS>MOLECULE
ZINC001176298561
 40 41 1 0 0
SMALL
USER_CHARGES


@<TRIPOS>ATOM
      1 C1        -10.9141   -2.6145   59.0333 C.3     1  ZINC001176298561   -0.1700
      2 C2         -9.7716   -2.4339   58.0318 C.3     1  ZINC001176298561    0.1100
      3 N3        -10.2431   -1.6461   56.8902 N.am    1  ZINC001176298561   -0.6100
      4 C4        -10.1955   -0.1827   56.9404 C.3     1  ZINC001176298561    0.0900
      5 C5         -8.8400    0.3016   56.4215 C.3     1  ZINC001176298561   -0.1800
      6 C6        -10.7205   -2.2676   55.7938 C.2     1  ZINC001176298561    0.5600
      7 O7        -10.7599   -3.4817   55.7520 O.2     1  ZINC001176298561   -0.5300
      8 C8        -11.1963   -1.4724   54.6414 C.ar    1  ZINC001176298561   -0.0600
      9 C9        -12.5156   -1.0189   54.6012 C.ar    1  ZINC001176298561   -0.1900
     10 C10       -12.9582   -0.2756   53.5225 C.ar    1  ZINC001176298561    0.1400
     11 F11       -14.2355    0.1631   53.4853 F       1  ZINC001176298561   -0.1300
     12 C12       -12.0961    0.0207   52.4811 C.ar    1  ZINC001176298561   -0.1800
     13 C13       -10.7805   -0.4273   52.5137 C.ar    1  ZINC001176298561    0.2400
     14 N14        -9.9139   -0.1255   51.4606 N.pl3   1  ZINC001176298561   -0.6700
     15 C15        -8.5782    0.2006   51.7248 C.2     1  ZINC001176298561    0.0400
     16 C16        -8.2716    1.2448   52.5540 C.2     1  ZINC001176298561   -0.0300
     17 C17        -6.9250    1.5500   52.8024 C.2     1  ZINC001176298561   -0.1300
     18 Cl18       -6.5139    2.8707   53.8515 Cl      1  ZINC001176298561   -0.0400
     19 C19        -5.9464    0.8151   52.2249 C.2     1  ZINC001176298561    0.1400
     20 N20        -6.2499   -0.2237   51.3998 N.am    1  ZINC001176298561   -0.6000
     21 C21        -7.5315   -0.5480   51.1431 C.2     1  ZINC001176298561    0.5100
     22 O22        -7.7881   -1.4827   50.4011 O.2     1  ZINC001176298561   -0.5200
     23 C23       -10.3265   -1.1686   53.5943 C.ar    1  ZINC001176298561   -0.1300
     24 H24       -10.5634   -3.2006   59.8828 H       1  ZINC001176298561    0.0700
     25 H25       -11.2509   -1.6376   59.3803 H       1  ZINC001176298561    0.0600
     26 H26       -11.7419   -3.1338   58.5505 H       1  ZINC001176298561    0.0600
     27 H27        -8.9439   -1.9145   58.5147 H       1  ZINC001176298561    0.0800
     28 H28        -9.4348   -3.4108   57.6849 H       1  ZINC001176298561    0.0900
     29 H29       -10.9906    0.2282   56.3183 H       1  ZINC001176298561    0.0900
     30 H30       -10.3306    0.1501   57.9695 H       1  ZINC001176298561    0.0800
     31 H31        -8.5427   -0.3018   55.5638 H       1  ZINC001176298561    0.0700
     32 H32        -8.9183    1.3465   56.1212 H       1  ZINC001176298561    0.0700
     33 H33        -8.0936    0.2051   57.2099 H       1  ZINC001176298561    0.0600
     34 H34       -13.1907   -1.2488   55.4122 H       1  ZINC001176298561    0.1500
     35 H35       -12.4466    0.6013   51.6406 H       1  ZINC001176298561    0.1300
     36 H36       -10.2375   -0.1417   50.5463 H       1  ZINC001176298561    0.4200
     37 H37        -9.0572    1.8275   53.0120 H       1  ZINC001176298561    0.1500
     38 H38        -4.9120    1.0561   52.4208 H       1  ZINC001176298561    0.1800
     39 H39        -5.5346   -0.7388   50.9947 H       1  ZINC001176298561    0.4300
     40 H40        -9.3047   -1.5172   53.6208 H       1  ZINC001176298561    0.1400
@<TRIPOS>BOND
     1     1     2    1
     2     1    24    1
     3     1    25    1
     4     1    26    1
     5     2     3    1
     6     2    27    1
     7     2    28    1
     8     3     4    1
     9     3     6   am
    10     4     5    1
    11     4    29    1
    12     4    30    1
    13     5    31    1
    14     5    32    1
    15     5    33    1
    16     6     7    2
    17     6     8    1
    18     8    23   ar
    19     8     9   ar
    20     9    10   ar
    21     9    34    1
    22    10    11    1
    23    10    12   ar
    24    12    13   ar
    25    12    35    1
    26    13    14    1
    27    13    23   ar
    28    14    15    1
    29    14    36    1
    30    15    21    1
    31    15    16    2
    32    16    17    1
    33    16    37    1
    34    17    18    1
    35    17    19    2
    36    19    20    1
    37    19    38    1
    38    20    21   am
    39    20    39    1
    40    21    22    2
    41    23    40    1
@<TRIPOS>SUBSTRUCTURE
     1 ZINC001176298561        1 TEMP              0 ****  ****    0 ROOT


##########                                Name:    ZINC000371438955
##########                DOCK_Rotatable_Bonds:                   4
##########                         Heavy_Atoms:                  25
##########                    Molecular_Weight:             387.499
##########                DOCK_Rotatable_Bonds:                   4
##########                       Formal_Charge:          -0.0299995
##########                     HBond_Acceptors:                   9
##########                        HBond_Donors:                   1
##########                         Heavy_Atoms:                  25
##########                          Grid_Score:          -27.538242
##########                     Grid_vdw_energy:          -27.539721
##########                      Grid_es_energy:            0.001479
##########           Internal_energy_repulsive:           33.639568

@<TRIPOS>MOLECULE
ZINC000371438955
 47 49 1 0 0
SMALL
USER_CHARGES


@<TRIPOS>ATOM
      1 C1         -2.8792    1.2427   46.6109 C.3     1  ZINC000371438955   -0.6800
      2 S2         -1.6064    1.1710   45.3204 S.o2    1  ZINC000371438955    2.6000
      3 O3         -2.0185    0.3189   44.2604 O.2     1  ZINC000371438955   -0.9500
      4 O4         -1.0882    2.4680   45.0585 O.2     1  ZINC000371438955   -0.9500
      5 N5         -0.3459    0.3626   46.0276 N.am    1  ZINC000371438955   -0.9900
      6 C6         -0.5582   -0.9741   46.5035 C.3     1  ZINC000371438955    0.1300
      7 C7         -1.1097   -0.8854   47.9364 C.3     1  ZINC000371438955   -0.1700
      8 C8         -0.0476   -0.6047   48.9152 C.3     1  ZINC000371438955    0.1400
      9 N9          0.6402    0.6645   48.5795 N.am    1  ZINC000371438955   -0.6200
     10 C10         0.3587    1.7863   49.2715 C.2     1  ZINC000371438955    0.7100
     11 O11         0.9226    2.8277   48.9966 O.2     1  ZINC000371438955   -0.5800
     12 N12        -0.5479    1.7535   50.2682 N.am    1  ZINC000371438955   -0.7400
     13 C13        -0.8539    2.9729   51.0205 C.3     1  ZINC000371438955    0.2000
     14 H14        -0.8654    3.8150   50.3285 H       1  ZINC000371438955    0.1100
     15 C15         0.2439    3.2004   52.0450 C.3     1  ZINC000371438955   -0.1300
     16 C16        -0.0487    4.4989   52.8100 C.3     1  ZINC000371438955   -0.1100
     17 S17        -1.4505    4.1703   53.9169 S.3     1  ZINC000371438955   -0.1000
     18 C18        -2.5881    3.3319   52.8602 C.ar    1  ZINC000371438955   -0.1100
     19 C19        -3.9021    3.1780   53.3114 C.ar    1  ZINC000371438955    0.1100
     20 F20        -4.2591    3.6754   54.5157 F       1  ZINC000371438955   -0.1300
     21 C21        -4.8378    2.5234   52.5376 C.ar    1  ZINC000371438955   -0.1300
     22 C22        -4.4667    2.0133   51.3065 C.ar    1  ZINC000371438955   -0.1000
     23 C23        -3.1728    2.1664   50.8586 C.ar    1  ZINC000371438955   -0.1000
     24 C24        -2.2185    2.8323   51.6285 C.ar    1  ZINC000371438955   -0.0800
     25 C25         1.6067    0.6999   47.5178 C.3     1  ZINC000371438955    0.1000
     26 C26         0.9725    1.0439   46.1434 C.3     1  ZINC000371438955    0.0900
     27 H27        -3.1578    0.2302   46.9031 H       1  ZINC000371438955    0.1300
     28 H28        -2.4886    1.7763   47.4773 H       1  ZINC000371438955    0.1300
     29 H29        -3.7561    1.7646   46.2278 H       1  ZINC000371438955    0.1300
     30 H30        -1.2778   -1.4836   45.8624 H       1  ZINC000371438955    0.0800
     31 H31         0.3857   -1.5191   46.5048 H       1  ZINC000371438955    0.0800
     32 H32        -1.8537   -0.0902   47.9819 H       1  ZINC000371438955    0.0800
     33 H33        -1.5872   -1.8314   48.1921 H       1  ZINC000371438955    0.0900
     34 H34        -0.4858   -0.5254   49.9101 H       1  ZINC000371438955    0.0900
     35 H35         0.6757   -1.4202   48.9065 H       1  ZINC000371438955    0.0700
     36 H36        -0.9978    0.9227   50.4875 H       1  ZINC000371438955    0.4000
     37 H37         0.2704    2.3638   52.7431 H       1  ZINC000371438955    0.0900
     38 H38         1.2048    3.2846   51.5374 H       1  ZINC000371438955    0.1000
     39 H39         0.8245    4.7900   53.3938 H       1  ZINC000371438955    0.1200
     40 H40        -0.3081    5.2920   52.1086 H       1  ZINC000371438955    0.1000
     41 H41        -5.8521    2.4096   52.8904 H       1  ZINC000371438955    0.1400
     42 H42        -5.1913    1.4947   50.6964 H       1  ZINC000371438955    0.1300
     43 H43        -2.8925    1.7630   49.8968 H       1  ZINC000371438955    0.1400
     44 H44         2.3632    1.4482   47.7544 H       1  ZINC000371438955    0.0800
     45 H45         2.0882   -0.2753   47.4465 H       1  ZINC000371438955    0.0900
     46 H46         1.6331    0.7082   45.3440 H       1  ZINC000371438955    0.0800
     47 H47         0.8296    2.1219   46.0687 H       1  ZINC000371438955    0.1000
@<TRIPOS>BOND
     1     1     2    1
     2     1    27    1
     3     1    28    1
     4     1    29    1
     5     2     3    2
     6     2     4    2
     7     2     5   am
     8     5    26    1
     9     5     6    1
    10     6     7    1
    11     6    30    1
    12     6    31    1
    13     7     8    1
    14     7    32    1
    15     7    33    1
    16     8     9    1
    17     8    34    1
    18     8    35    1
    19     9    10   am
    20     9    25    1
    21    10    11    2
    22    10    12   am
    23    12    13    1
    24    12    36    1
    25    13    14    1
    26    13    24    1
    27    13    15    1
    28    15    16    1
    29    15    37    1
    30    15    38    1
    31    16    17    1
    32    16    39    1
    33    16    40    1
    34    17    18    1
    35    18    24   ar
    36    18    19   ar
    37    19    20    1
    38    19    21   ar
    39    21    22   ar
    40    21    41    1
    41    22    23   ar
    42    22    42    1
    43    23    24   ar
    44    23    43    1
    45    25    26    1
    46    25    44    1
    47    25    45    1
    48    26    46    1
    49    26    47    1
@<TRIPOS>SUBSTRUCTURE
     1 ZINC000371438955        1 TEMP              0 ****  ****    0 ROOT


##########                                Name:    ZINC001098311495
##########                DOCK_Rotatable_Bonds:                   8
##########                         Heavy_Atoms:                  24
##########                    Molecular_Weight:             328.454
##########                DOCK_Rotatable_Bonds:                   8
##########                       Formal_Charge:          0.00999987
##########                     HBond_Acceptors:                   4
##########                        HBond_Donors:                   1
##########                         Heavy_Atoms:                  24
##########                          Grid_Score:          -27.518351
##########                     Grid_vdw_energy:          -26.890078
##########                      Grid_es_energy:           -0.628272
##########           Internal_energy_repulsive:           22.709600

@<TRIPOS>MOLECULE
ZINC001098311495
 52 54 1 0 0
SMALL
USER_CHARGES


@<TRIPOS>ATOM
      1 C1         -5.2697    0.8029   50.9871 C.3     1  ZINC001098311495   -0.1500
      2 C2         -5.2013    1.9445   52.0035 C.3     1  ZINC001098311495    0.0500
      3 O3         -4.3089    2.9538   51.5271 O.3     1  ZINC001098311495   -0.2800
      4 C4         -3.0250    2.8952   51.9611 C.ar    1  ZINC001098311495    0.1900
      5 C5         -2.7258    3.1601   53.2889 C.ar    1  ZINC001098311495   -0.2200
      6 C6         -1.4175    3.1066   53.7278 C.ar    1  ZINC001098311495   -0.0500
      7 C7         -0.3966    2.7822   52.8496 C.ar    1  ZINC001098311495   -0.1700
      8 C8         -0.6766    2.5099   51.5278 C.ar    1  ZINC001098311495   -0.0500
      9 C9         -1.9953    2.5609   51.0705 C.ar    1  ZINC001098311495   -0.1800
     10 C10        -2.3022    2.2706   49.6569 C.2     1  ZINC001098311495    0.5600
     11 O11        -2.8507    3.1099   48.9691 O.2     1  ZINC001098311495   -0.5200
     12 N12        -1.9746    1.0750   49.1280 N.am    1  ZINC001098311495   -0.7200
     13 C13        -2.2777    0.7874   47.7239 C.3     1  ZINC001098311495    0.1600
     14 H14        -3.3507    0.8519   47.5431 H       1  ZINC001098311495    0.1000
     15 C15        -1.7371   -0.6074   47.3242 C.3     1  ZINC001098311495   -0.1200
     16 C16        -0.7085   -0.2902   46.1971 C.3     1  ZINC001098311495    0.0500
     17 H17         0.0423   -1.0591   46.0151 H       1  ZINC001098311495    0.1100
     18 C18        -1.5559    0.1295   44.9583 C.3     1  ZINC001098311495   -0.1500
     19 C19        -2.0957    1.5279   45.3460 C.3     1  ZINC001098311495   -0.1500
     20 C20        -1.5036    1.7610   46.7849 C.3     1  ZINC001098311495    0.0400
     21 H21        -1.4515    2.8005   47.1084 H       1  ZINC001098311495    0.1200
     22 N22        -0.1839    1.0462   46.6535 N.3     1  ZINC001098311495   -0.4900
     23 C23         0.6499    1.6668   45.6155 C.3     1  ZINC001098311495    0.0600
     24 C24         2.0665    1.1696   45.7452 C.2     1  ZINC001098311495   -0.1600
     25 C25         2.9492    1.4581   44.8211 C.2     1  ZINC001098311495   -0.1200
     26 C26         4.3658    0.9609   44.9508 C.3     1  ZINC001098311495   -0.1200
     27 C27         2.5477    2.2870   43.6283 C.3     1  ZINC001098311495   -0.1200
     28 H28        -5.6314    1.1870   50.0333 H       1  ZINC001098311495    0.0700
     29 H29        -4.2759    0.3755   50.8534 H       1  ZINC001098311495    0.0700
     30 H30        -5.9504    0.0331   51.3505 H       1  ZINC001098311495    0.0800
     31 H31        -4.8396    1.5604   52.9574 H       1  ZINC001098311495    0.0600
     32 H32        -6.1951    2.3719   52.1372 H       1  ZINC001098311495    0.0600
     33 H33        -3.5163    3.4134   53.9797 H       1  ZINC001098311495    0.1300
     34 H34        -1.1889    3.3184   54.7618 H       1  ZINC001098311495    0.1300
     35 H35         0.6234    2.7422   53.2023 H       1  ZINC001098311495    0.1300
     36 H36         0.1225    2.2578   50.8465 H       1  ZINC001098311495    0.1300
     37 H37        -1.5381    0.4050   49.6771 H       1  ZINC001098311495    0.4000
     38 H38        -2.5419   -1.2363   46.9434 H       1  ZINC001098311495    0.0800
     39 H39        -1.2436   -1.0847   48.1708 H       1  ZINC001098311495    0.0800
     40 H40        -0.9295    0.1930   44.0685 H       1  ZINC001098311495    0.0700
     41 H41        -2.3779   -0.5691   44.8011 H       1  ZINC001098311495    0.0800
     42 H42        -1.7367    2.2847   44.6483 H       1  ZINC001098311495    0.0700
     43 H43        -3.1851    1.5227   45.3809 H       1  ZINC001098311495    0.0800
     44 H44         0.6326    2.7501   45.7352 H       1  ZINC001098311495    0.0500
     45 H45         0.2611    1.4038   44.6317 H       1  ZINC001098311495    0.0800
     46 H46         2.3543    0.5757   46.6001 H       1  ZINC001098311495    0.1100
     47 H47         4.9611    1.6968   45.4913 H       1  ZINC001098311495    0.0700
     48 H48         4.7898    0.8088   43.9582 H       1  ZINC001098311495    0.0600
     49 H49         4.3713    0.0174   45.4966 H       1  ZINC001098311495    0.0600
     50 H50         2.1145    1.6400   42.8654 H       1  ZINC001098311495    0.0700
     51 H51         1.8123    3.0311   43.9338 H       1  ZINC001098311495    0.0600
     52 H52         3.4260    2.7893   43.2227 H       1  ZINC001098311495    0.0600
@<TRIPOS>BOND
     1     1     2    1
     2     1    28    1
     3     1    29    1
     4     1    30    1
     5     2     3    1
     6     2    31    1
     7     2    32    1
     8     3     4    1
     9     4     9   ar
    10     4     5   ar
    11     5     6   ar
    12     5    33    1
    13     6     7   ar
    14     6    34    1
    15     7     8   ar
    16     7    35    1
    17     8     9   ar
    18     8    36    1
    19     9    10    1
    20    10    11    2
    21    10    12   am
    22    12    13    1
    23    12    37    1
    24    13    14    1
    25    13    20    1
    26    13    15    1
    27    15    16    1
    28    15    38    1
    29    15    39    1
    30    16    17    1
    31    16    22    1
    32    16    18    1
    33    18    19    1
    34    18    40    1
    35    18    41    1
    36    19    20    1
    37    19    42    1
    38    19    43    1
    39    20    21    1
    40    20    22    1
    41    22    23    1
    42    23    24    1
    43    23    44    1
    44    23    45    1
    45    24    25    2
    46    24    46    1
    47    25    26    1
    48    25    27    1
    49    26    47    1
    50    26    48    1
    51    26    49    1
    52    27    50    1
    53    27    51    1
    54    27    52    1
@<TRIPOS>SUBSTRUCTURE
     1 ZINC001098311495        1 TEMP              0 ****  ****    0 ROOT


##########                                Name:    ZINC000944933040
##########                DOCK_Rotatable_Bonds:                   4
##########                         Heavy_Atoms:                  26
##########                    Molecular_Weight:             354.449
##########                DOCK_Rotatable_Bonds:                   4
##########                       Formal_Charge:           0.0100002
##########                     HBond_Acceptors:                   5
##########                        HBond_Donors:                   0
##########                         Heavy_Atoms:                  26
##########                          Grid_Score:          -27.468891
##########                     Grid_vdw_energy:          -26.479132
##########                      Grid_es_energy:           -0.989760
##########           Internal_energy_repulsive:           13.142048

@<TRIPOS>MOLECULE
ZINC000944933040
 52 57 1 0 0
SMALL
USER_CHARGES


@<TRIPOS>ATOM
      1 O1         -9.8565   -3.0421   55.3842 O.2     1  ZINC000944933040   -0.5200
      2 C2         -9.5817   -1.8578   55.3542 C.2     1  ZINC000944933040    0.6400
      3 C3         -9.0557   -1.2749   54.1566 C.1     1  ZINC000944933040   -0.2200
      4 C4         -8.6246   -0.7972   53.1747 C.1     1  ZINC000944933040   -0.0400
      5 C5         -8.0839   -0.1980   51.9437 C.3     1  ZINC000944933040   -0.0700
      6 C6         -6.6013   -0.4236   51.6403 C.3     1  ZINC000944933040   -0.1600
      7 C7         -7.6692   -1.1483   50.8185 C.3     1  ZINC000944933040   -0.1600
      8 N8         -9.7772   -1.0927   56.4464 N.am    1  ZINC000944933040   -0.6000
      9 C9         -9.4603    0.3413   56.4178 C.3     1  ZINC000944933040    0.1100
     10 C10        -8.4828    0.6531   57.5573 C.3     1  ZINC000944933040   -0.1200
     11 C11        -9.0545    0.1168   58.8673 C.3     1  ZINC000944933040   -0.0900
     12 C12        -8.2703    0.5632   60.1090 C.3     1  ZINC000944933040    0.1200
     13 N13        -9.5893    0.7787   60.7368 N.am    1  ZINC000944933040   -0.6400
     14 C14       -10.0362    0.8084   62.0080 C.2     1  ZINC000944933040    0.5500
     15 O15       -11.2102    1.0124   62.2335 O.2     1  ZINC000944933040   -0.5300
     16 C16        -9.0770    0.5879   63.1493 C.3     1  ZINC000944933040   -0.1300
     17 H17        -8.5943   -0.3856   63.0635 H       1  ZINC000944933040    0.1100
     18 C18        -9.8043    0.7220   64.5115 C.3     1  ZINC000944933040   -0.1300
     19 C19        -9.0697    1.9238   65.1778 C.3     1  ZINC000944933040    0.0900
     20 H20        -9.6281    2.4370   65.9608 H       1  ZINC000944933040    0.1300
     21 O21        -8.7276    2.7348   64.0062 O.3     1  ZINC000944933040   -0.3600
     22 C22        -8.0156    1.7272   63.2063 C.3     1  ZINC000944933040    0.1200
     23 H23        -7.6306    2.0719   62.2466 H       1  ZINC000944933040    0.1400
     24 C24        -6.9393    1.2386   64.2215 C.3     1  ZINC000944933040   -0.2000
     25 H25        -6.3320    0.3744   63.9522 H       1  ZINC000944933040    0.1200
     26 C26        -6.4198    2.2588   65.2365 C.3     1  ZINC000944933040   -0.1300
     27 C27        -7.6768    1.3704   65.6038 C.3     1  ZINC000944933040   -0.2000
     28 H28        -7.6096    0.6259   66.3972 H       1  ZINC000944933040    0.1300
     29 C29       -10.2225    0.9498   59.4139 C.3     1  ZINC000944933040    0.1100
     30 C30        -9.3390   -1.3827   58.8300 C.3     1  ZINC000944933040   -0.1100
     31 C31       -10.3161   -1.6798   57.6803 C.3     1  ZINC000944933040    0.1100
     32 H32        -8.5160    0.7612   51.6587 H       1  ZINC000944933040    0.1400
     33 H33        -6.0578    0.3875   51.1557 H       1  ZINC000944933040    0.1100
     34 H34        -6.0264   -1.0156   52.3523 H       1  ZINC000944933040    0.1000
     35 H35        -7.7968   -2.2172   50.9899 H       1  ZINC000944933040    0.1000
     36 H36        -7.8282   -0.8141   49.7933 H       1  ZINC000944933040    0.1100
     37 H37        -9.0009    0.5949   55.4625 H       1  ZINC000944933040    0.0900
     38 H38       -10.3741    0.9202   56.5515 H       1  ZINC000944933040    0.0800
     39 H39        -7.5238    0.1755   57.3557 H       1  ZINC000944933040    0.0800
     40 H40        -8.3449    1.7315   57.6342 H       1  ZINC000944933040    0.0900
     41 H41        -7.6883   -0.2340   60.5713 H       1  ZINC000944933040    0.0800
     42 H42        -7.6984    1.4793   59.9619 H       1  ZINC000944933040    0.0900
     43 H43       -10.8604    0.9483   64.3648 H       1  ZINC000944933040    0.0800
     44 H44        -9.6812   -0.1834   65.1058 H       1  ZINC000944933040    0.0900
     45 H45        -5.4880    2.0245   65.7515 H       1  ZINC000944933040    0.1000
     46 H46        -6.5798    3.3139   65.0144 H       1  ZINC000944933040    0.1000
     47 H47       -10.2306    1.9808   59.0602 H       1  ZINC000944933040    0.0900
     48 H48       -11.1919    0.4599   59.3237 H       1  ZINC000944933040    0.0800
     49 H49        -8.4079   -1.9263   58.6697 H       1  ZINC000944933040    0.0800
     50 H50        -9.7851   -1.6925   59.7750 H       1  ZINC000944933040    0.0800
     51 H51       -11.2888   -1.2422   57.9051 H       1  ZINC000944933040    0.0700
     52 H52       -10.4179   -2.7581   57.5566 H       1  ZINC000944933040    0.1000
@<TRIPOS>BOND
     1     1     2    2
     2     2     3    1
     3     2     8   am
     4     3     4    3
     5     4     5    1
     6     5     7    1
     7     5     6    1
     8     5    32    1
     9     6     7    1
    10     6    33    1
    11     6    34    1
    12     7    35    1
    13     7    36    1
    14     8    31    1
    15     8     9    1
    16     9    10    1
    17     9    37    1
    18     9    38    1
    19    10    11    1
    20    10    39    1
    21    10    40    1
    22    11    29    1
    23    11    12    1
    24    11    30    1
    25    12    13    1
    26    12    41    1
    27    12    42    1
    28    13    14   am
    29    13    29    1
    30    14    15    2
    31    14    16    1
    32    16    17    1
    33    16    22    1
    34    16    18    1
    35    18    19    1
    36    18    43    1
    37    18    44    1
    38    19    20    1
    39    19    27    1
    40    19    21    1
    41    21    22    1
    42    22    23    1
    43    22    24    1
    44    24    25    1
    45    24    27    1
    46    24    26    1
    47    26    27    1
    48    26    45    1
    49    26    46    1
    50    27    28    1
    51    29    47    1
    52    29    48    1
    53    30    31    1
    54    30    49    1
    55    30    50    1
    56    31    51    1
    57    31    52    1
@<TRIPOS>SUBSTRUCTURE
     1 ZINC000944933040        1 TEMP              0 ****  ****    0 ROOT


##########                                Name:    ZINC001045463759
##########                DOCK_Rotatable_Bonds:                   6
##########                         Heavy_Atoms:                  24
##########                    Molecular_Weight:             336.385
##########                DOCK_Rotatable_Bonds:                   6
##########                       Formal_Charge:          1.3411e-07
##########                     HBond_Acceptors:                   7
##########                        HBond_Donors:                   2
##########                         Heavy_Atoms:                  24
##########                          Grid_Score:          -27.464695
##########                     Grid_vdw_energy:          -26.374664
##########                      Grid_es_energy:           -1.090031
##########           Internal_energy_repulsive:           13.300339

@<TRIPOS>MOLECULE
ZINC001045463759
 46 49 1 0 0
SMALL
USER_CHARGES


@<TRIPOS>ATOM
      1 O1         -0.8907    3.9382   50.1209 O.2     1  ZINC001045463759   -0.5100
      2 C2         -2.0946    3.8980   49.9795 C.2     1  ZINC001045463759    0.5400
      3 N3         -2.6220    3.5090   48.8017 N.am    1  ZINC001045463759   -0.7200
      4 C4         -1.7412    3.1408   47.6906 C.3     1  ZINC001045463759    0.1400
      5 H5         -0.7934    2.7739   48.0845 H       1  ZINC001045463759    0.1000
      6 C6         -1.4878    4.3678   46.8124 C.3     1  ZINC001045463759   -0.1300
      7 C7         -0.5678    3.9832   45.6520 C.3     1  ZINC001045463759   -0.1200
      8 C8         -1.2317    2.8865   44.8167 C.3     1  ZINC001045463759   -0.1200
      9 C9         -1.4851    1.6596   45.6949 C.3     1  ZINC001045463759   -0.1300
     10 C10        -2.4050    2.0441   46.8553 C.3     1  ZINC001045463759    0.1500
     11 H11        -3.3528    2.4111   46.4614 H       1  ZINC001045463759    0.0900
     12 N12        -2.6477    0.8693   47.6962 N.pl3   1  ZINC001045463759   -0.7100
     13 C13        -1.6058    0.0089   48.0017 C.ar    1  ZINC001045463759    0.4400
     14 C14        -1.5853   -1.2901   47.4901 C.ar    1  ZINC001045463759   -0.3000
     15 C15        -0.5248   -2.1094   47.8239 C.ar    1  ZINC001045463759    0.1800
     16 N16         0.4317   -1.6402   48.6125 N.ar    1  ZINC001045463759   -0.5600
     17 C17         0.3834   -0.4088   49.0794 C.ar    1  ZINC001045463759    0.4000
     18 C18         1.4944    0.0801   49.9728 C.3     1  ZINC001045463759   -0.1100
     19 C19         2.1201    1.4369   49.6437 C.3     1  ZINC001045463759   -0.1500
     20 C20         1.2050    1.2916   50.8612 C.3     1  ZINC001045463759   -0.1500
     21 N21        -0.6062    0.4088   48.7825 N.ar    1  ZINC001045463759   -0.5700
     22 C22        -3.0008    4.2768   51.1225 C.3     1  ZINC001045463759   -0.2000
     23 H23        -3.6230    5.1564   50.9574 H       1  ZINC001045463759    0.1500
     24 C24        -3.5900    3.1421   51.9628 C.3     1  ZINC001045463759   -0.1500
     25 C25        -2.4870    4.0312   52.5426 C.3     1  ZINC001045463759    0.2300
     26 F26        -1.2122    3.4717   52.6806 F       1  ZINC001045463759   -0.1400
     27 F27        -2.8522    4.9524   53.5301 F       1  ZINC001045463759   -0.1500
     28 H28        -3.5849    3.4730   48.6898 H       1  ZINC001045463759    0.4000
     29 H29        -2.4355    4.7347   46.4185 H       1  ZINC001045463759    0.0700
     30 H30        -1.0148    5.1491   47.4074 H       1  ZINC001045463759    0.0800
     31 H31        -0.3872    4.8573   45.0263 H       1  ZINC001045463759    0.0700
     32 H32         0.3800    3.6164   46.0459 H       1  ZINC001045463759    0.0700
     33 H33        -2.1794    3.2534   44.4228 H       1  ZINC001045463759    0.0700
     34 H34        -0.5762    2.6126   43.9900 H       1  ZINC001045463759    0.0700
     35 H35        -1.9580    0.8783   45.0999 H       1  ZINC001045463759    0.0700
     36 H36        -0.5373    1.2927   46.0888 H       1  ZINC001045463759    0.0700
     37 H37        -3.5380    0.6938   48.0389 H       1  ZINC001045463759    0.4100
     38 H38        -2.3792   -1.6454   46.8498 H       1  ZINC001045463759    0.1400
     39 H39        -0.4754   -3.1204   47.4472 H       1  ZINC001045463759    0.1700
     40 H40         2.1499   -0.6929   50.3737 H       1  ZINC001045463759    0.1300
     41 H41         3.1878    1.5567   49.8280 H       1  ZINC001045463759    0.1000
     42 H42         1.7284    1.9759   48.7810 H       1  ZINC001045463759    0.1100
     43 H43         0.2112    1.7351   50.7996 H       1  ZINC001045463759    0.1000
     44 H44         1.6705    1.3159   51.8465 H       1  ZINC001045463759    0.1000
     45 H45        -4.5998    3.2754   52.3509 H       1  ZINC001045463759    0.1400
     46 H46        -3.3223    2.1216   51.6889 H       1  ZINC001045463759    0.1300
@<TRIPOS>BOND
     1     1     2    2
     2     2     3   am
     3     2    22    1
     4     3     4    1
     5     3    28    1
     6     4     5    1
     7     4    10    1
     8     4     6    1
     9     6     7    1
    10     6    29    1
    11     6    30    1
    12     7     8    1
    13     7    31    1
    14     7    32    1
    15     8     9    1
    16     8    33    1
    17     8    34    1
    18     9    10    1
    19     9    35    1
    20     9    36    1
    21    10    11    1
    22    10    12    1
    23    12    13    1
    24    12    37    1
    25    13    21   ar
    26    13    14   ar
    27    14    15   ar
    28    14    38    1
    29    15    16   ar
    30    15    39    1
    31    16    17   ar
    32    17    18    1
    33    17    21   ar
    34    18    20    1
    35    18    19    1
    36    18    40    1
    37    19    20    1
    38    19    41    1
    39    19    42    1
    40    20    43    1
    41    20    44    1
    42    22    23    1
    43    22    25    1
    44    22    24    1
    45    24    25    1
    46    24    45    1
    47    24    46    1
    48    25    26    1
    49    25    27    1
@<TRIPOS>SUBSTRUCTURE
     1 ZINC001045463759        1 TEMP              0 ****  ****    0 ROOT


##########                                Name:    ZINC000517001504
##########                DOCK_Rotatable_Bonds:                   5
##########                         Heavy_Atoms:                  29
##########                    Molecular_Weight:             403.401
##########                DOCK_Rotatable_Bonds:                   5
##########                       Formal_Charge:          -0.0200002
##########                     HBond_Acceptors:                   7
##########                        HBond_Donors:                   0
##########                         Heavy_Atoms:                  29
##########                          Grid_Score:          -27.436678
##########                     Grid_vdw_energy:          -27.802809
##########                      Grid_es_energy:            0.366131
##########           Internal_energy_repulsive:           31.823887

@<TRIPOS>MOLECULE
ZINC000517001504
 49 52 1 0 0
SMALL
USER_CHARGES


@<TRIPOS>ATOM
      1 O1         -1.4834    0.4925   45.3207 O.2     1  ZINC000517001504   -0.5200
      2 C2         -1.0096    1.1208   46.2436 C.2     1  ZINC000517001504    0.5400
      3 N3         -0.1188    0.5369   47.0696 N.am    1  ZINC000517001504   -0.6100
      4 C4          0.2896   -0.8633   46.8752 C.3     1  ZINC000517001504    0.0600
      5 C5          0.1442   -1.5993   48.2119 C.3     1  ZINC000517001504    0.0500
      6 O6          0.8375   -0.8710   49.2282 O.3     1  ZINC000517001504   -0.3700
      7 C7          0.3199    0.4405   49.4646 C.3     1  ZINC000517001504    0.1200
      8 H8         -0.7350    0.3731   49.7306 H       1  ZINC000517001504    0.0800
      9 C9          1.0830    1.0871   50.5918 C.ar    1  ZINC000517001504   -0.0600
     10 C10         0.4133    1.8432   51.5356 C.ar    1  ZINC000517001504   -0.0900
     11 C11         1.1133    2.4363   52.5695 C.ar    1  ZINC000517001504   -0.0700
     12 C12         2.4829    2.2730   52.6600 C.ar    1  ZINC000517001504   -0.1800
     13 C13         3.2462    2.9200   53.7869 C.3     1  ZINC000517001504    0.5100
     14 F14         4.5519    2.4182   53.8142 F       1  ZINC000517001504   -0.1800
     15 F15         3.2827    4.3046   53.5908 F       1  ZINC000517001504   -0.1800
     16 F16         2.6126    2.6375   55.0018 F       1  ZINC000517001504   -0.1800
     17 C17         3.1525    1.5158   51.7170 C.ar    1  ZINC000517001504   -0.0700
     18 C18         2.4519    0.9195   50.6852 C.ar    1  ZINC000517001504   -0.1000
     19 C19         0.4785    1.2828   48.1885 C.3     1  ZINC000517001504    0.0900
     20 C20        -1.4122    2.5563   46.4631 C.3     1  ZINC000517001504   -0.0600
     21 C21        -2.2718    2.7433   47.6868 C.ar    1  ZINC000517001504   -0.0700
     22 C22        -2.7742    1.6415   48.3534 C.ar    1  ZINC000517001504   -0.1200
     23 C23        -3.5626    1.8131   49.4759 C.ar    1  ZINC000517001504   -0.1100
     24 C24        -3.8482    3.0864   49.9319 C.ar    1  ZINC000517001504   -0.1100
     25 C25        -3.3450    4.1881   49.2657 C.ar    1  ZINC000517001504   -0.1100
     26 C26        -2.5531    4.0165   48.1458 C.ar    1  ZINC000517001504   -0.1000
     27 C27        -0.2390    3.5473   46.3731 C.3     1  ZINC000517001504   -0.1600
     28 C28        -0.5463    3.6435   44.8919 C.2     1  ZINC000517001504    0.3600
     29 O29         0.0762    3.9213   43.8951 O.2     1  ZINC000517001504   -0.4100
     30 C30        -1.9736    3.2395   45.2042 C.3     1  ZINC000517001504   -0.1900
     31 H31        -0.3496   -1.3317   46.1267 H       1  ZINC000517001504    0.1000
     32 H32         1.3283   -0.9005   46.5467 H       1  ZINC000517001504    0.0800
     33 H33        -0.9113   -1.6741   48.4734 H       1  ZINC000517001504    0.0600
     34 H34         0.5703   -2.5989   48.1254 H       1  ZINC000517001504    0.1100
     35 H35        -0.6568    1.9708   51.4649 H       1  ZINC000517001504    0.1400
     36 H36         0.5901    3.0276   53.3065 H       1  ZINC000517001504    0.1400
     37 H37         4.2226    1.3879   51.7879 H       1  ZINC000517001504    0.1400
     38 H38         2.9752    0.3279   49.9484 H       1  ZINC000517001504    0.1400
     39 H39         1.5364    1.4605   47.9953 H       1  ZINC000517001504    0.0800
     40 H40        -0.0380    2.2348   48.3106 H       1  ZINC000517001504    0.1100
     41 H41        -2.5511    0.6467   47.9972 H       1  ZINC000517001504    0.1300
     42 H42        -3.9558    0.9522   49.9964 H       1  ZINC000517001504    0.1300
     43 H43        -4.4648    3.2204   50.8084 H       1  ZINC000517001504    0.1300
     44 H44        -3.5684    5.1830   49.6218 H       1  ZINC000517001504    0.1300
     45 H45        -2.1599    4.8773   47.6254 H       1  ZINC000517001504    0.1200
     46 H46        -0.4086    4.4769   46.9165 H       1  ZINC000517001504    0.1300
     47 H47         0.7303    3.0987   46.5906 H       1  ZINC000517001504    0.1100
     48 H48        -2.3993    2.5433   44.4815 H       1  ZINC000517001504    0.1000
     49 H49        -2.6298    4.0827   45.4196 H       1  ZINC000517001504    0.1400
@<TRIPOS>BOND
     1     1     2    2
     2     2     3   am
     3     2    20    1
     4     3    19    1
     5     3     4    1
     6     4     5    1
     7     4    31    1
     8     4    32    1
     9     5     6    1
    10     5    33    1
    11     5    34    1
    12     6     7    1
    13     7     8    1
    14     7     9    1
    15     7    19    1
    16     9    18   ar
    17     9    10   ar
    18    10    11   ar
    19    10    35    1
    20    11    12   ar
    21    11    36    1
    22    12    13    1
    23    12    17   ar
    24    13    14    1
    25    13    15    1
    26    13    16    1
    27    17    18   ar
    28    17    37    1
    29    18    38    1
    30    19    39    1
    31    19    40    1
    32    20    30    1
    33    20    21    1
    34    20    27    1
    35    21    26   ar
    36    21    22   ar
    37    22    23   ar
    38    22    41    1
    39    23    24   ar
    40    23    42    1
    41    24    25   ar
    42    24    43    1
    43    25    26   ar
    44    25    44    1
    45    26    45    1
    46    27    28    1
    47    27    46    1
    48    27    47    1
    49    28    29    2
    50    28    30    1
    51    30    48    1
    52    30    49    1
@<TRIPOS>SUBSTRUCTURE
     1 ZINC000517001504        1 TEMP              0 ****  ****    0 ROOT


##########                                Name:    ZINC000373864439
##########                DOCK_Rotatable_Bonds:                   7
##########                         Heavy_Atoms:                  23
##########                    Molecular_Weight:              344.45
##########                DOCK_Rotatable_Bonds:                   7
##########                       Formal_Charge:          -0.0300001
##########                     HBond_Acceptors:                   7
##########                        HBond_Donors:                   1
##########                         Heavy_Atoms:                  23
##########                          Grid_Score:          -27.398823
##########                     Grid_vdw_energy:          -25.746471
##########                      Grid_es_energy:           -1.652351
##########           Internal_energy_repulsive:           24.664368

@<TRIPOS>MOLECULE
ZINC000373864439
 48 49 1 0 0
SMALL
USER_CHARGES


@<TRIPOS>ATOM
      1 C1         -0.0167    2.2249   57.3686 C.3     1  ZINC000373864439   -0.1500
      2 C2          0.8374    2.9426   56.3215 C.3     1  ZINC000373864439   -0.6300
      3 S3          0.0148    4.4797   55.8204 S.o2    1  ZINC000373864439    2.6100
      4 O4         -0.3458    5.2469   56.9609 O.2     1  ZINC000373864439   -0.9500
      5 O5          0.6941    5.0738   54.7228 O.2     1  ZINC000373864439   -0.9600
      6 N6         -1.4329    3.9858   55.1860 N.am    1  ZINC000373864439   -1.1200
      7 C7         -1.4573    3.0866   54.0297 C.3     1  ZINC000373864439    0.1100
      8 C8         -1.4403    3.9118   52.7415 C.3     1  ZINC000373864439    0.0500
      9 N9         -1.5584    3.0151   51.5839 N.3     1  ZINC000373864439   -0.5300
     10 C10        -0.2393    2.5326   51.1553 C.3     1  ZINC000373864439    0.0400
     11 C11        -0.4110    1.4924   50.0460 C.3     1  ZINC000373864439   -0.1300
     12 C12        -1.1504    2.1290   48.8661 C.3     1  ZINC000373864439    0.1800
     13 F13        -0.3868    3.1807   48.3483 F       1  ZINC000373864439   -0.2100
     14 C14        -1.3740    1.0937   47.7940 C.ar    1  ZINC000373864439   -0.1500
     15 C15        -1.1234   -0.2389   48.0569 C.ar    1  ZINC000373864439   -0.0700
     16 C16        -1.3280   -1.1893   47.0734 C.ar    1  ZINC000373864439   -0.1600
     17 C17        -1.7840   -0.8086   45.8252 C.ar    1  ZINC000373864439   -0.0700
     18 C18        -2.0367    0.5231   45.5573 C.ar    1  ZINC000373864439   -0.2100
     19 C19        -1.8375    1.4777   46.5437 C.ar    1  ZINC000373864439    0.1400
     20 O20        -2.0852    2.7882   46.2828 O.3     1  ZINC000373864439   -0.3100
     21 C21        -2.3307    3.1432   44.9206 C.3     1  ZINC000373864439    0.0200
     22 C22        -2.5002    2.6664   49.3497 C.3     1  ZINC000373864439   -0.1300
     23 C23        -2.2680    3.6726   50.4791 C.3     1  ZINC000373864439    0.0600
     24 H24        -0.9932    1.9926   56.9437 H       1  ZINC000373864439    0.0700
     25 H25         0.4776    1.3013   57.6697 H       1  ZINC000373864439    0.0800
     26 H26        -0.1430    2.8696   58.2384 H       1  ZINC000373864439    0.0700
     27 H27         1.8139    3.1750   56.7464 H       1  ZINC000373864439    0.1300
     28 H28         0.9637    2.2978   55.4517 H       1  ZINC000373864439    0.1300
     29 H29        -2.2648    4.2919   55.5800 H       1  ZINC000373864439    0.4200
     30 H30        -0.5826    2.4366   54.0564 H       1  ZINC000373864439    0.0700
     31 H31        -2.3621    2.4796   54.0604 H       1  ZINC000373864439    0.0900
     32 H32        -2.2768    4.6107   52.7466 H       1  ZINC000373864439    0.0900
     33 H33        -0.5040    4.4663   52.6775 H       1  ZINC000373864439    0.0400
     34 H34         0.3494    3.3697   50.7802 H       1  ZINC000373864439    0.0400
     35 H35         0.2742    2.0784   52.0027 H       1  ZINC000373864439    0.0900
     36 H36         0.5688    1.1459   49.7173 H       1  ZINC000373864439    0.0800
     37 H37        -0.9879    0.6486   50.4245 H       1  ZINC000373864439    0.1000
     38 H38        -0.7669   -0.5389   49.0313 H       1  ZINC000373864439    0.1300
     39 H39        -1.1307   -2.2307   47.2808 H       1  ZINC000373864439    0.1300
     40 H40        -1.9427   -1.5527   45.0587 H       1  ZINC000373864439    0.1300
     41 H41        -2.3928    0.8200   44.5819 H       1  ZINC000373864439    0.1300
     42 H42        -2.5134    4.2156   44.8518 H       1  ZINC000373864439    0.1000
     43 H43        -1.4623    2.8832   44.3151 H       1  ZINC000373864439    0.0600
     44 H44        -3.2034    2.6018   44.5555 H       1  ZINC000373864439    0.0600
     45 H45        -3.0130    3.1588   48.5234 H       1  ZINC000373864439    0.0800
     46 H46        -3.1099    1.8411   49.7172 H       1  ZINC000373864439    0.1000
     47 H47        -3.2279    4.0465   50.8354 H       1  ZINC000373864439    0.0800
     48 H48        -1.6698    4.5045   50.1072 H       1  ZINC000373864439    0.0400
@<TRIPOS>BOND
     1     1     2    1
     2     1    24    1
     3     1    25    1
     4     1    26    1
     5     2     3    1
     6     2    27    1
     7     2    28    1
     8     3     4    2
     9     3     5    2
    10     3     6   am
    11     6     7    1
    12     6    29    1
    13     7     8    1
    14     7    30    1
    15     7    31    1
    16     8     9    1
    17     8    32    1
    18     8    33    1
    19     9    23    1
    20     9    10    1
    21    10    11    1
    22    10    34    1
    23    10    35    1
    24    11    12    1
    25    11    36    1
    26    11    37    1
    27    12    13    1
    28    12    14    1
    29    12    22    1
    30    14    19   ar
    31    14    15   ar
    32    15    16   ar
    33    15    38    1
    34    16    17   ar
    35    16    39    1
    36    17    18   ar
    37    17    40    1
    38    18    19   ar
    39    18    41    1
    40    19    20    1
    41    20    21    1
    42    21    42    1
    43    21    43    1
    44    21    44    1
    45    22    23    1
    46    22    45    1
    47    22    46    1
    48    23    47    1
    49    23    48    1
@<TRIPOS>SUBSTRUCTURE
     1 ZINC000373864439        1 TEMP              0 ****  ****    0 ROOT


##########                                Name:    ZINC000326056918
##########                DOCK_Rotatable_Bonds:                   6
##########                         Heavy_Atoms:                  24
##########                    Molecular_Weight:             408.326
##########                DOCK_Rotatable_Bonds:                   6
##########                       Formal_Charge:         -0.00999978
##########                     HBond_Acceptors:                   9
##########                        HBond_Donors:                   0
##########                         Heavy_Atoms:                  24
##########                          Grid_Score:          -27.378832
##########                     Grid_vdw_energy:          -26.683773
##########                      Grid_es_energy:           -0.695059
##########           Internal_energy_repulsive:           37.512051

@<TRIPOS>MOLECULE
ZINC000326056918
 39 40 1 0 0
SMALL
USER_CHARGES


@<TRIPOS>ATOM
      1 C1         -1.9099    0.0298   44.1508 C.3     1  ZINC000326056918    0.0400
      2 O2         -1.2654    0.4647   45.3770 O.3     1  ZINC000326056918   -0.3500
      3 C3         -1.4473   -0.3042   46.4704 C.2     1  ZINC000326056918    0.5000
      4 O4         -2.0955   -1.3303   46.3914 O.2     1  ZINC000326056918   -0.4300
      5 C5         -0.8645    0.0965   47.7522 C.2     1  ZINC000326056918   -0.1600
      6 C6         -1.3891    1.0269   48.6061 C.2     1  ZINC000326056918   -0.6200
      7 S7         -2.8826    1.9045   48.2837 S.o2    1  ZINC000326056918    2.6900
      8 O8         -3.3539    1.4455   47.0242 O.2     1  ZINC000326056918   -0.9100
      9 O9         -3.6543    1.8342   49.4748 O.2     1  ZINC000326056918   -0.9400
     10 N10        -2.4807    3.4980   48.0801 N.am    1  ZINC000326056918   -0.9900
     11 C11        -3.0456    4.5154   48.9700 C.3     1  ZINC000326056918    0.0900
     12 C12        -1.5601    3.8903   47.0101 C.3     1  ZINC000326056918    0.1500
     13 C13        -0.1510    3.9144   47.5435 C.ar    1  ZINC000326056918   -0.0900
     14 C14         0.1041    4.4357   48.7977 C.ar    1  ZINC000326056918   -0.0800
     15 C15         1.3966    4.4586   49.2876 C.ar    1  ZINC000326056918   -0.1100
     16 C16         2.4355    3.9592   48.5227 C.ar    1  ZINC000326056918   -0.0200
     17 Cl17        4.0584    3.9874   49.1383 Cl      1  ZINC000326056918   -0.0600
     18 C18         2.1806    3.4366   47.2672 C.ar    1  ZINC000326056918   -0.1100
     19 C19         0.8866    3.4093   46.7798 C.ar    1  ZINC000326056918   -0.0300
     20 Cl20        0.5658    2.7534   45.2047 Cl      1  ZINC000326056918   -0.0100
     21 C21        -0.6358    1.2086   49.7410 C.2     1  ZINC000326056918   -0.0400
     22 C22        -1.0243    2.1848   50.8213 C.3     1  ZINC000326056918   -0.1100
     23 C23         0.4678    0.4549   49.8169 C.2     1  ZINC000326056918   -0.2600
     24 S24         0.6185   -0.5469   48.4441 S.3     1  ZINC000326056918    0.3100
     25 H25        -1.6832    0.7352   43.3512 H       1  ZINC000326056918    0.1100
     26 H26        -1.5419   -0.9592   43.8778 H       1  ZINC000326056918    0.0700
     27 H27        -2.9885   -0.0129   44.3026 H       1  ZINC000326056918    0.0700
     28 H28        -2.4396    4.5850   49.8734 H       1  ZINC000326056918    0.0600
     29 H29        -3.0521    5.4796   48.4617 H       1  ZINC000326056918    0.0700
     30 H30        -4.0656    4.2386   49.2371 H       1  ZINC000326056918    0.0900
     31 H31        -1.6268    3.1729   46.1922 H       1  ZINC000326056918    0.1100
     32 H32        -1.8278    4.8822   46.6460 H       1  ZINC000326056918    0.0900
     33 H33        -0.7067    4.8258   49.3952 H       1  ZINC000326056918    0.1400
     34 H34         1.5954    4.8668   50.2676 H       1  ZINC000326056918    0.1400
     35 H35         2.9914    3.0466   46.6697 H       1  ZINC000326056918    0.1500
     36 H36        -1.7471    1.7177   51.4903 H       1  ZINC000326056918    0.0900
     37 H37        -0.1380    2.4718   51.3873 H       1  ZINC000326056918    0.0700
     38 H38        -1.4686    3.0708   50.3678 H       1  ZINC000326056918    0.0900
     39 H39         1.1674    0.4755   50.6394 H       1  ZINC000326056918    0.1800
@<TRIPOS>BOND
     1     1     2    1
     2     1    25    1
     3     1    26    1
     4     1    27    1
     5     2     3    1
     6     3     4    2
     7     3     5    1
     8     5    24    1
     9     5     6    2
    10     6     7    1
    11     6    21    1
    12     7     8    2
    13     7     9    2
    14     7    10   am
    15    10    11    1
    16    10    12    1
    17    11    28    1
    18    11    29    1
    19    11    30    1
    20    12    13    1
    21    12    31    1
    22    12    32    1
    23    13    19   ar
    24    13    14   ar
    25    14    15   ar
    26    14    33    1
    27    15    16   ar
    28    15    34    1
    29    16    17    1
    30    16    18   ar
    31    18    19   ar
    32    18    35    1
    33    19    20    1
    34    21    22    1
    35    21    23    2
    36    22    36    1
    37    22    37    1
    38    22    38    1
    39    23    24    1
    40    23    39    1
@<TRIPOS>SUBSTRUCTURE
     1 ZINC000326056918        1 TEMP              0 ****  ****    0 ROOT


##########                                Name:    ZINC000768148687
##########                DOCK_Rotatable_Bonds:                   8
##########                         Heavy_Atoms:                  25
##########                    Molecular_Weight:             371.307
##########                DOCK_Rotatable_Bonds:                   8
##########                       Formal_Charge:         2.98023e-08
##########                     HBond_Acceptors:                  11
##########                        HBond_Donors:                   0
##########                         Heavy_Atoms:                  25
##########                          Grid_Score:          -27.347494
##########                     Grid_vdw_energy:          -25.169867
##########                      Grid_es_energy:           -2.177627
##########           Internal_energy_repulsive:           16.283531

@<TRIPOS>MOLECULE
ZINC000768148687
 43 44 1 0 0
SMALL
USER_CHARGES


@<TRIPOS>ATOM
      1 C1          1.8650    1.6223   51.0456 C.3     1  ZINC000768148687   -0.1800
      2 C2          1.2373    0.2742   50.6861 C.3     1  ZINC000768148687    0.1100
      3 N3          0.2248    0.4689   49.6453 N.pl3   1  ZINC000768148687   -0.3100
      4 N4         -0.6740    1.5387   49.5692 N.2     1  ZINC000768148687   -0.2000
      5 C5         -1.4257    1.3851   48.5144 C.2     1  ZINC000768148687    0.0200
      6 C6         -2.5233    2.3154   48.0660 C.3     1  ZINC000768148687    0.5500
      7 F7         -3.6552    1.5690   47.7212 F       1  ZINC000768148687   -0.1600
      8 F8         -2.8434    3.1944   49.1062 F       1  ZINC000768148687   -0.1600
      9 F9         -2.0902    3.0461   46.9545 F       1  ZINC000768148687   -0.1500
     10 C10        -1.0304    0.1932   47.8656 C.2     1  ZINC000768148687   -0.1800
     11 C11        -1.6119   -0.3660   46.6334 C.2     1  ZINC000768148687    0.5300
     12 O12        -2.3552   -1.3256   46.6933 O.2     1  ZINC000768148687   -0.4700
     13 O13        -1.3198    0.1863   45.4394 O.3     1  ZINC000768148687   -0.3400
     14 C14         0.0205    0.7183   45.2695 C.3     1  ZINC000768148687    0.0200
     15 C15         0.1535    1.3289   43.8729 C.3     1  ZINC000768148687    0.0600
     16 N16         1.5316    1.7963   43.6720 N.3     1  ZINC000768148687   -0.5300
     17 C17         2.4706    0.6659   43.6309 C.3     1  ZINC000768148687    0.0100
     18 C18         3.8828    1.1921   43.3611 C.3     1  ZINC000768148687    0.0600
     19 O19         4.2301    2.1480   44.3665 O.3     1  ZINC000768148687   -0.3800
     20 C20         3.3368    3.2629   44.4340 C.3     1  ZINC000768148687    0.0600
     21 C21         1.9190    2.7577   44.7147 C.3     1  ZINC000768148687    0.0100
     22 C22         0.0073   -0.3458   48.6009 C.2     1  ZINC000768148687    0.0600
     23 C23         0.7514   -1.6195   48.2930 C.3     1  ZINC000768148687    0.3400
     24 F24        -0.1568   -2.6798   48.2022 F       1  ZINC000768148687   -0.1700
     25 F25         1.4296   -1.4811   47.0774 F       1  ZINC000768148687   -0.1800
     26 H26         2.6183    1.4774   51.8200 H       1  ZINC000768148687    0.0900
     27 H27         2.3325    2.0531   50.1601 H       1  ZINC000768148687    0.0700
     28 H28         1.0916    2.2969   51.4127 H       1  ZINC000768148687    0.0700
     29 H29         2.0107   -0.4005   50.3189 H       1  ZINC000768148687    0.1100
     30 H30         0.7698   -0.1566   51.5715 H       1  ZINC000768148687    0.1200
     31 H31         0.2045    1.4863   46.0208 H       1  ZINC000768148687    0.0800
     32 H32         0.7478   -0.0852   45.3855 H       1  ZINC000768148687    0.0800
     33 H33        -0.0877    0.5758   43.1227 H       1  ZINC000768148687    0.1100
     34 H34        -0.5331    2.1700   43.7772 H       1  ZINC000768148687    0.0900
     35 H35         2.4534    0.1435   44.5874 H       1  ZINC000768148687    0.0500
     36 H36         2.1797   -0.0201   42.8354 H       1  ZINC000768148687    0.0900
     37 H37         4.5908    0.3638   43.3864 H       1  ZINC000768148687    0.1000
     38 H38         3.9129    1.6677   42.3808 H       1  ZINC000768148687    0.0600
     39 H39         3.6499    3.9322   45.2352 H       1  ZINC000768148687    0.1000
     40 H40         3.3509    3.7986   43.4849 H       1  ZINC000768148687    0.0600
     41 H41         1.2255    3.5985   44.7103 H       1  ZINC000768148687    0.0800
     42 H42         1.8931    2.2686   45.6885 H       1  ZINC000768148687    0.0700
     43 H43         1.4687   -1.8227   49.0882 H       1  ZINC000768148687    0.1500
@<TRIPOS>BOND
     1     1     2    1
     2     1    26    1
     3     1    27    1
     4     1    28    1
     5     2     3    1
     6     2    29    1
     7     2    30    1
     8     3    22    1
     9     3     4    1
    10     4     5    2
    11     5     6    1
    12     5    10    1
    13     6     7    1
    14     6     8    1
    15     6     9    1
    16    10    11    1
    17    10    22    2
    18    11    12    2
    19    11    13    1
    20    13    14    1
    21    14    15    1
    22    14    31    1
    23    14    32    1
    24    15    16    1
    25    15    33    1
    26    15    34    1
    27    16    21    1
    28    16    17    1
    29    17    18    1
    30    17    35    1
    31    17    36    1
    32    18    19    1
    33    18    37    1
    34    18    38    1
    35    19    20    1
    36    20    21    1
    37    20    39    1
    38    20    40    1
    39    21    41    1
    40    21    42    1
    41    22    23    1
    42    23    24    1
    43    23    25    1
    44    23    43    1
@<TRIPOS>SUBSTRUCTURE
     1 ZINC000768148687        1 TEMP              0 ****  ****    0 ROOT


##########                                Name:    ZINC001110536231
##########                DOCK_Rotatable_Bonds:                   8
##########                         Heavy_Atoms:                  24
##########                    Molecular_Weight:             329.442
##########                DOCK_Rotatable_Bonds:                   8
##########                       Formal_Charge:          -0.0400001
##########                     HBond_Acceptors:                   5
##########                        HBond_Donors:                   1
##########                         Heavy_Atoms:                  24
##########                          Grid_Score:          -27.346029
##########                     Grid_vdw_energy:          -27.294523
##########                      Grid_es_energy:           -0.051507
##########           Internal_energy_repulsive:           30.559826

@<TRIPOS>MOLECULE
ZINC001110536231
 51 53 1 0 0
SMALL
USER_CHARGES


@<TRIPOS>ATOM
      1 C1        -16.2323   -0.9860   61.3049 C.3     1  ZINC001110536231   -0.1300
      2 C2        -14.8480   -1.6060   61.1046 C.3     1  ZINC001110536231   -0.1000
      3 C3        -14.8817   -2.5385   59.9212 C.2     1  ZINC001110536231   -0.0200
      4 C4        -16.1569   -3.2588   59.5656 C.3     1  ZINC001110536231   -0.1300
      5 C5        -13.7863   -2.7258   59.1906 C.2     1  ZINC001110536231   -0.2400
      6 C6        -12.5417   -2.0227   59.5377 C.2     1  ZINC001110536231    0.5400
      7 O7        -11.9499   -2.3038   60.5622 O.2     1  ZINC001110536231   -0.5300
      8 N8        -12.0573   -1.0669   58.7202 N.am    1  ZINC001110536231   -0.7300
      9 C9        -10.8168   -0.3678   59.0650 C.3     1  ZINC001110536231    0.1100
     10 H10       -10.7061   -0.2963   60.1470 H       1  ZINC001110536231    0.1000
     11 C11       -10.7866    1.0393   58.4198 C.3     1  ZINC001110536231   -0.1600
     12 C12        -9.5434    0.9833   57.4816 C.3     1  ZINC001110536231    0.0500
     13 H13        -9.5300    1.7148   56.6736 H       1  ZINC001110536231    0.1200
     14 C14        -8.3133    1.0148   58.4382 C.3     1  ZINC001110536231   -0.1200
     15 C15        -8.3321   -0.3857   59.0982 C.3     1  ZINC001110536231   -0.1100
     16 C16        -9.5874   -1.0886   58.4341 C.3     1  ZINC001110536231    0.0400
     17 H17        -9.5914   -2.1779   58.4716 H       1  ZINC001110536231    0.1200
     18 N18        -9.5659   -0.4627   57.0593 N.3     1  ZINC001110536231   -0.4900
     19 C19       -10.7886   -0.7891   56.3131 C.3     1  ZINC001110536231    0.0600
     20 C20       -10.4879   -0.8002   54.8364 C.ar    1  ZINC001110536231    0.0100
     21 C21       -11.5077   -0.6758   53.9034 C.ar    1  ZINC001110536231   -0.2100
     22 C22       -11.1976   -0.6894   52.5579 C.ar    1  ZINC001110536231    0.1400
     23 N23        -9.9487   -0.8188   52.1529 N.ar    1  ZINC001110536231   -0.5400
     24 C24        -8.9497   -0.9398   53.0116 C.ar    1  ZINC001110536231    0.3200
     25 O25        -7.6801   -1.0701   52.5512 O.3     1  ZINC001110536231   -0.3100
     26 C26        -7.4963   -1.0294   51.1347 C.3     1  ZINC001110536231    0.0400
     27 C27        -9.1874   -0.9291   54.3798 C.ar    1  ZINC001110536231   -0.1700
     28 H28       -16.2078   -0.3115   62.1608 H       1  ZINC001110536231    0.0500
     29 H29       -16.5136   -0.4289   60.4113 H       1  ZINC001110536231    0.0700
     30 H30       -16.9615   -1.7757   61.4853 H       1  ZINC001110536231    0.0400
     31 H31       -14.1187   -0.8162   60.9241 H       1  ZINC001110536231    0.0900
     32 H32       -14.5666   -2.1631   61.9982 H       1  ZINC001110536231    0.0600
     33 H33       -16.7364   -2.6503   58.8713 H       1  ZINC001110536231    0.0800
     34 H34       -15.9165   -4.2138   59.0984 H       1  ZINC001110536231    0.0700
     35 H35       -16.7399   -3.4332   60.4699 H       1  ZINC001110536231    0.0700
     36 H36       -13.8106   -3.3940   58.3425 H       1  ZINC001110536231    0.1200
     37 H37       -12.5299   -0.8418   57.9036 H       1  ZINC001110536231    0.4000
     38 H38       -11.6945    1.2167   57.8434 H       1  ZINC001110536231    0.0700
     39 H39       -10.6580    1.8081   59.1816 H       1  ZINC001110536231    0.0800
     40 H40        -7.3921    1.1609   57.8741 H       1  ZINC001110536231    0.0700
     41 H41        -8.4319    1.7950   59.1901 H       1  ZINC001110536231    0.0700
     42 H42        -7.4202   -0.9338   58.8614 H       1  ZINC001110536231    0.0800
     43 H43        -8.4600   -0.2996   60.1773 H       1  ZINC001110536231    0.0700
     44 H44       -11.1489   -1.7715   56.6180 H       1  ZINC001110536231    0.0900
     45 H45       -11.5528   -0.0406   56.5226 H       1  ZINC001110536231    0.0700
     46 H46       -12.5329   -0.5699   54.2263 H       1  ZINC001110536231    0.1300
     47 H47       -11.9876   -0.5932   51.8277 H       1  ZINC001110536231    0.1600
     48 H48        -6.4376   -1.1448   50.9023 H       1  ZINC001110536231    0.1000
     49 H49        -8.0603   -1.8391   50.6717 H       1  ZINC001110536231    0.0600
     50 H50        -7.8507   -0.0732   50.7496 H       1  ZINC001110536231    0.0600
     51 H51        -8.3695   -1.0277   55.0782 H       1  ZINC001110536231    0.1400
@<TRIPOS>BOND
     1     1     2    1
     2     1    28    1
     3     1    29    1
     4     1    30    1
     5     2     3    1
     6     2    31    1
     7     2    32    1
     8     3     4    1
     9     3     5    2
    10     4    33    1
    11     4    34    1
    12     4    35    1
    13     5     6    1
    14     5    36    1
    15     6     7    2
    16     6     8   am
    17     8     9    1
    18     8    37    1
    19     9    10    1
    20     9    16    1
    21     9    11    1
    22    11    12    1
    23    11    38    1
    24    11    39    1
    25    12    13    1
    26    12    18    1
    27    12    14    1
    28    14    15    1
    29    14    40    1
    30    14    41    1
    31    15    16    1
    32    15    42    1
    33    15    43    1
    34    16    17    1
    35    16    18    1
    36    18    19    1
    37    19    20    1
    38    19    44    1
    39    19    45    1
    40    20    27   ar
    41    20    21   ar
    42    21    22   ar
    43    21    46    1
    44    22    23   ar
    45    22    47    1
    46    23    24   ar
    47    24    25    1
    48    24    27   ar
    49    25    26    1
    50    26    48    1
    51    26    49    1
    52    26    50    1
    53    27    51    1
@<TRIPOS>SUBSTRUCTURE
     1 ZINC001110536231        1 TEMP              0 ****  ****    0 ROOT


##########                                Name:    ZINC000057429281
##########                DOCK_Rotatable_Bonds:                  10
##########                         Heavy_Atoms:                  23
##########                    Molecular_Weight:             331.295
##########                DOCK_Rotatable_Bonds:                  10
##########                       Formal_Charge:          -0.0100002
##########                     HBond_Acceptors:                   9
##########                        HBond_Donors:                   5
##########                         Heavy_Atoms:                  23
##########                          Grid_Score:          -27.341101
##########                     Grid_vdw_energy:          -25.448103
##########                      Grid_es_energy:           -1.892998
##########           Internal_energy_repulsive:           10.010331

@<TRIPOS>MOLECULE
ZINC000057429281
 39 39 1 0 0
SMALL
USER_CHARGES


@<TRIPOS>ATOM
      1 C1         -3.6960    5.0086   51.7716 C.3     1  ZINC000057429281   -0.1500
      2 C2         -4.2683    3.6007   51.5952 C.3     1  ZINC000057429281   -0.0400
      3 H3         -5.1672    3.6483   50.9807 H       1  ZINC000057429281    0.0900
      4 C4         -4.6175    3.0168   52.9655 C.3     1  ZINC000057429281   -0.1300
      5 C5         -6.0005    2.4197   52.9194 C.2     1  ZINC000057429281    0.5200
      6 O6         -6.9693    3.1166   53.1347 O.2     1  ZINC000057429281   -0.5300
      7 N7         -6.1605    1.1112   52.6389 N.am    1  ZINC000057429281   -0.7000
      8 C8         -7.5048    0.5303   52.5959 C.3     1  ZINC000057429281    0.1100
      9 C9         -7.5217   -0.6258   51.6293 C.2     1  ZINC000057429281    0.5200
     10 N10        -6.4564   -1.4468   51.5422 N.am    1  ZINC000057429281   -0.8500
     11 O11        -8.4938   -0.8174   50.9300 O.2     1  ZINC000057429281   -0.5100
     12 C12        -7.8853    0.0421   53.9699 C.2     1  ZINC000057429281    0.5300
     13 N13        -7.4071    0.6676   55.0637 N.am    1  ZINC000057429281   -0.8400
     14 O14        -8.6219   -0.9137   54.0913 O.2     1  ZINC000057429281   -0.5100
     15 C15        -3.2450    2.7234   50.9213 C.ar    1  ZINC000057429281   -0.0500
     16 C16        -3.5294    2.1433   49.6992 C.ar    1  ZINC000057429281   -0.1200
     17 C17        -2.5908    1.3386   49.0809 C.ar    1  ZINC000057429281   -0.0700
     18 C18        -1.3675    1.1144   49.6845 C.ar    1  ZINC000057429281   -0.1900
     19 C19        -0.3443    0.2368   49.0106 C.3     1  ZINC000057429281    0.5100
     20 F20         0.4306   -0.4064   49.9817 F       1  ZINC000057429281   -0.1800
     21 F21        -0.9956   -0.7200   48.2248 F       1  ZINC000057429281   -0.1800
     22 F22         0.4819    1.0222   48.1997 F       1  ZINC000057429281   -0.1800
     23 C23        -1.0826    1.6956   50.9058 C.ar    1  ZINC000057429281   -0.0700
     24 C24        -2.0197    2.5034   51.5224 C.ar    1  ZINC000057429281   -0.1100
     25 H25        -3.4472    5.4247   50.7954 H       1  ZINC000057429281    0.0600
     26 H26        -4.4361    5.6433   52.2591 H       1  ZINC000057429281    0.0800
     27 H27        -2.7970    4.9611   52.3862 H       1  ZINC000057429281    0.0500
     28 H28        -3.8959    2.2423   53.2251 H       1  ZINC000057429281    0.1000
     29 H29        -4.5879    3.8071   53.7155 H       1  ZINC000057429281    0.1000
     30 H30        -5.3856    0.5540   52.4656 H       1  ZINC000057429281    0.4200
     31 H31        -8.2174    1.2875   52.2690 H       1  ZINC000057429281    0.1300
     32 H32        -6.4672   -2.1910   50.9201 H       1  ZINC000057429281    0.4000
     33 H33        -5.6789   -1.2934   52.1014 H       1  ZINC000057429281    0.4100
     34 H34        -7.6520    0.3533   55.9481 H       1  ZINC000057429281    0.4000
     35 H35        -6.8180    1.4321   54.9665 H       1  ZINC000057429281    0.4100
     36 H36        -4.4851    2.3185   49.2276 H       1  ZINC000057429281    0.1400
     37 H37        -2.8132    0.8848   48.1265 H       1  ZINC000057429281    0.1400
     38 H38        -0.1267    1.5208   51.3773 H       1  ZINC000057429281    0.1400
     39 H39        -1.7971    2.9576   52.4766 H       1  ZINC000057429281    0.1400
@<TRIPOS>BOND
     1     1     2    1
     2     1    25    1
     3     1    26    1
     4     1    27    1
     5     2     3    1
     6     2     4    1
     7     2    15    1
     8     4     5    1
     9     4    28    1
    10     4    29    1
    11     5     6    2
    12     5     7   am
    13     7     8    1
    14     7    30    1
    15     8     9    1
    16     8    12    1
    17     8    31    1
    18     9    10   am
    19     9    11    2
    20    10    32    1
    21    10    33    1
    22    12    13   am
    23    12    14    2
    24    13    34    1
    25    13    35    1
    26    15    24   ar
    27    15    16   ar
    28    16    17   ar
    29    16    36    1
    30    17    18   ar
    31    17    37    1
    32    18    19    1
    33    18    23   ar
    34    19    20    1
    35    19    21    1
    36    19    22    1
    37    23    24   ar
    38    23    38    1
    39    24    39    1
@<TRIPOS>SUBSTRUCTURE
     1 ZINC000057429281        1 TEMP              0 ****  ****    0 ROOT


##########                                Name:    ZINC001362451754
##########                DOCK_Rotatable_Bonds:                   6
##########                         Heavy_Atoms:                  22
##########                    Molecular_Weight:             339.846
##########                DOCK_Rotatable_Bonds:                   6
##########                       Formal_Charge:         -0.00999987
##########                     HBond_Acceptors:                   7
##########                        HBond_Donors:                   1
##########                         Heavy_Atoms:                  22
##########                          Grid_Score:          -27.340237
##########                     Grid_vdw_energy:          -26.938797
##########                      Grid_es_energy:           -0.401439
##########           Internal_energy_repulsive:           15.547345

@<TRIPOS>MOLECULE
ZINC001362451754
 40 42 1 0 0
SMALL
USER_CHARGES


@<TRIPOS>ATOM
      1 C1          0.8409    1.8868   46.5061 C.3     1  ZINC001362451754   -0.1700
      2 C2         -0.4882    2.5951   46.2366 C.3     1  ZINC001362451754    0.1400
      3 H3         -0.3052    3.6153   45.8994 H       1  ZINC001362451754    0.0800
      4 C4         -1.2863    1.8233   45.1646 C.3     1  ZINC001362451754   -0.1000
      5 H5         -1.8381    2.5118   44.5246 H       1  ZINC001362451754    0.1000
      6 C6         -0.3581    0.9353   44.3335 C.3     1  ZINC001362451754    0.0900
      7 O7         -1.1028    0.3237   43.2783 O.3     1  ZINC001362451754   -0.5700
      8 C8         -2.2596    0.9603   46.0103 C.3     1  ZINC001362451754   -0.1200
      9 C9         -2.5708    1.9075   47.1932 C.3     1  ZINC001362451754    0.0900
     10 N10        -1.3033    2.6114   47.4601 N.am    1  ZINC001362451754   -0.6100
     11 C11        -0.9480    3.1719   48.6332 C.2     1  ZINC001362451754    0.6100
     12 O12         0.1284    3.7297   48.7397 O.2     1  ZINC001362451754   -0.5200
     13 C13        -1.8580    3.1094   49.7806 C.2     1  ZINC001362451754   -0.2500
     14 C14        -1.6057    2.4635   50.9581 C.2     1  ZINC001362451754   -0.0500
     15 C15        -2.6361    2.5603   51.8629 C.2     1  ZINC001362451754   -0.1100
     16 C16        -3.6921    3.2693   51.4470 C.2     1  ZINC001362451754   -0.2500
     17 C17        -4.9332    3.5133   52.2661 C.3     1  ZINC001362451754    0.2100
     18 N18        -5.6402    2.2466   52.4708 N.pl3   1  ZINC001362451754   -0.3700
     19 C19        -5.5972    1.1718   51.6544 C.2     1  ZINC001362451754    0.0700
     20 C20        -6.3807    0.2104   52.1970 C.2     1  ZINC001362451754   -0.1800
     21 Cl21       -6.6623   -1.3707   51.5377 Cl      1  ZINC001362451754   -0.0400
     22 C22        -6.9282    0.7186   53.3802 C.2     1  ZINC001362451754    0.0700
     23 N23        -6.4850    1.9385   53.5450 N.2     1  ZINC001362451754   -0.2700
     24 S24        -3.4492    3.8531   49.8623 S.3     1  ZINC001362451754    0.2300
     25 H25         0.6479    0.8701   46.8485 H       1  ZINC001362451754    0.0600
     26 H26         1.4286    1.8557   45.5886 H       1  ZINC001362451754    0.0700
     27 H27         1.3930    2.4298   47.2731 H       1  ZINC001362451754    0.0700
     28 H28         0.4418    1.5423   43.9094 H       1  ZINC001362451754    0.0500
     29 H29         0.0714    0.1621   44.9706 H       1  ZINC001362451754    0.0500
     30 H30        -1.6220    0.9463   42.7513 H       1  ZINC001362451754    0.3800
     31 H31        -3.1631    0.7254   45.4475 H       1  ZINC001362451754    0.0900
     32 H32        -1.7719    0.0504   46.3599 H       1  ZINC001362451754    0.0800
     33 H33        -2.8781    1.3344   48.0680 H       1  ZINC001362451754    0.0800
     34 H34        -3.3477    2.6186   46.9124 H       1  ZINC001362451754    0.0800
     35 H35        -0.6898    1.9267   51.1565 H       1  ZINC001362451754    0.1600
     36 H36        -2.5949    2.1009   52.8395 H       1  ZINC001362451754    0.1500
     37 H37        -4.6541    3.9338   53.2323 H       1  ZINC001362451754    0.1100
     38 H38        -5.5841    4.2118   51.7403 H       1  ZINC001362451754    0.1100
     39 H39        -5.0365    1.0926   50.7348 H       1  ZINC001362451754    0.1800
     40 H40        -7.6009    0.1943   54.0430 H       1  ZINC001362451754    0.1900
@<TRIPOS>BOND
     1     1     2    1
     2     1    25    1
     3     1    26    1
     4     1    27    1
     5     2     3    1
     6     2    10    1
     7     2     4    1
     8     4     5    1
     9     4     6    1
    10     4     8    1
    11     6     7    1
    12     6    28    1
    13     6    29    1
    14     7    30    1
    15     8     9    1
    16     8    31    1
    17     8    32    1
    18     9    10    1
    19     9    33    1
    20     9    34    1
    21    10    11   am
    22    11    12    2
    23    11    13    1
    24    13    24    1
    25    13    14    2
    26    14    15    1
    27    14    35    1
    28    15    16    2
    29    15    36    1
    30    16    17    1
    31    16    24    1
    32    17    18    1
    33    17    37    1
    34    17    38    1
    35    18    23    1
    36    18    19    1
    37    19    20    2
    38    19    39    1
    39    20    21    1
    40    20    22    1
    41    22    23    2
    42    22    40    1
@<TRIPOS>SUBSTRUCTURE
     1 ZINC001362451754        1 TEMP              0 ****  ****    0 ROOT


##########                                Name:    ZINC000915315870
##########                DOCK_Rotatable_Bonds:                   4
##########                         Heavy_Atoms:                  24
##########                    Molecular_Weight:             357.381
##########                DOCK_Rotatable_Bonds:                   4
##########                       Formal_Charge:           0.0300002
##########                     HBond_Acceptors:                   9
##########                        HBond_Donors:                   1
##########                         Heavy_Atoms:                  24
##########                          Grid_Score:          -27.336033
##########                     Grid_vdw_energy:          -26.759090
##########                      Grid_es_energy:           -0.576942
##########           Internal_energy_repulsive:           39.309650

@<TRIPOS>MOLECULE
ZINC000915315870
 41 43 1 0 0
SMALL
USER_CHARGES


@<TRIPOS>ATOM
      1 C1         -1.6172    0.0357   42.7813 C.3     1  ZINC000915315870    0.0300
      2 O2         -0.4976    0.7347   43.3291 O.3     1  ZINC000915315870   -0.3200
      3 C3         -0.2492    0.5601   44.6549 C.ar    1  ZINC000915315870    0.0800
      4 C4         -1.0445   -0.2958   45.4048 C.ar    1  ZINC000915315870    0.0900
      5 F5         -2.0662   -0.9572   44.8183 F       1  ZINC000915315870   -0.1100
      6 C6         -0.7893   -0.4713   46.7534 C.ar    1  ZINC000915315870   -0.0500
      7 C7          0.2560    0.2051   47.3544 C.ar    1  ZINC000915315870   -0.6300
      8 S8          0.5773   -0.0205   49.0721 S.o2    1  ZINC000915315870    2.7000
      9 O9          0.3635   -1.3990   49.3426 O.2     1  ZINC000915315870   -0.9400
     10 O10         1.8047    0.6431   49.3412 O.2     1  ZINC000915315870   -0.9400
     11 N11        -0.5930    0.8061   49.9024 N.am    1  ZINC000915315870   -1.1100
     12 C12        -0.7372    2.2525   49.7202 C.3     1  ZINC000915315870    0.2400
     13 H13         0.2461    2.7082   49.6040 H       1  ZINC000915315870    0.0900
     14 C14        -1.5889    2.5352   48.4762 C.3     1  ZINC000915315870   -0.1400
     15 C15        -1.9436    4.0227   48.4205 C.3     1  ZINC000915315870   -0.1100
     16 C16        -2.9726    4.3513   49.5094 C.3     1  ZINC000915315870   -0.0400
     17 C17        -2.4618    3.8058   50.8209 C.2     1  ZINC000915315870    0.0900
     18 N18        -2.8527    4.1048   52.0255 N.2     1  ZINC000915315870   -0.2900
     19 N19        -2.0908    3.3514   52.9314 N.pl3   1  ZINC000915315870   -0.3800
     20 C20        -2.2084    3.3839   54.3913 C.3     1  ZINC000915315870    0.1000
     21 C21        -1.2294    2.5898   52.2202 C.2     1  ZINC000915315870    0.0800
     22 C22        -1.4366    2.8490   50.9167 C.2     1  ZINC000915315870   -0.2500
     23 C23         1.0500    1.0579   46.6103 C.ar    1  ZINC000915315870   -0.0500
     24 C24         0.8036    1.2332   45.2600 C.ar    1  ZINC000915315870    0.1000
     25 F25         1.5799    2.0666   44.5335 F       1  ZINC000915315870   -0.1100
     26 H26        -1.7021    0.2622   41.7185 H       1  ZINC000915315870    0.1100
     27 H27        -1.4761   -1.0369   42.9141 H       1  ZINC000915315870    0.0600
     28 H28        -2.5270    0.3487   43.2934 H       1  ZINC000915315870    0.0500
     29 H29        -1.4076   -1.1370   47.3373 H       1  ZINC000915315870    0.1700
     30 H30        -1.1831    0.3325   50.5094 H       1  ZINC000915315870    0.4200
     31 H31        -1.0274    2.2625   47.5827 H       1  ZINC000915315870    0.0900
     32 H32        -2.5045    1.9455   48.5221 H       1  ZINC000915315870    0.0800
     33 H33        -1.0437    4.6162   48.5812 H       1  ZINC000915315870    0.0700
     34 H34        -2.3629    4.2590   47.4425 H       1  ZINC000915315870    0.0800
     35 H35        -3.0968    5.4316   49.5838 H       1  ZINC000915315870    0.0800
     36 H36        -3.9278    3.8866   49.2649 H       1  ZINC000915315870    0.0900
     37 H37        -2.9356    2.6390   54.7139 H       1  ZINC000915315870    0.0800
     38 H38        -1.2393    3.1633   54.8388 H       1  ZINC000915315870    0.0900
     39 H39        -2.5376    4.3738   54.7073 H       1  ZINC000915315870    0.0900
     40 H40        -0.5055    1.8981   52.6253 H       1  ZINC000915315870    0.1700
     41 H41         1.8661    1.5846   47.0825 H       1  ZINC000915315870    0.1700
@<TRIPOS>BOND
     1     1     2    1
     2     1    26    1
     3     1    27    1
     4     1    28    1
     5     2     3    1
     6     3    24   ar
     7     3     4   ar
     8     4     5    1
     9     4     6   ar
    10     6     7   ar
    11     6    29    1
    12     7     8    1
    13     7    23   ar
    14     8     9    2
    15     8    10    2
    16     8    11   am
    17    11    12    1
    18    11    30    1
    19    12    13    1
    20    12    22    1
    21    12    14    1
    22    14    15    1
    23    14    31    1
    24    14    32    1
    25    15    16    1
    26    15    33    1
    27    15    34    1
    28    16    17    1
    29    16    35    1
    30    16    36    1
    31    17    22    1
    32    17    18    2
    33    18    19    1
    34    19    20    1
    35    19    21    1
    36    20    37    1
    37    20    38    1
    38    20    39    1
    39    21    22    2
    40    21    40    1
    41    23    24   ar
    42    23    41    1
    43    24    25    1
@<TRIPOS>SUBSTRUCTURE
     1 ZINC000915315870        1 TEMP              0 ****  ****    0 ROOT


##########                                Name:    ZINC000863246516
##########                DOCK_Rotatable_Bonds:                   5
##########                         Heavy_Atoms:                  25
##########                    Molecular_Weight:             356.489
##########                DOCK_Rotatable_Bonds:                   5
##########                       Formal_Charge:         -0.00999938
##########                     HBond_Acceptors:                   5
##########                        HBond_Donors:                   0
##########                         Heavy_Atoms:                  25
##########                          Grid_Score:          -27.318272
##########                     Grid_vdw_energy:          -27.395294
##########                      Grid_es_energy:            0.077023
##########           Internal_energy_repulsive:            9.673496

@<TRIPOS>MOLECULE
ZINC000863246516
 49 52 1 0 0
SMALL
USER_CHARGES


@<TRIPOS>ATOM
      1 C1        -10.5525   -0.6177   61.9645 C.3     1  ZINC000863246516   -0.0600
      2 C2        -11.0568   -0.6599   60.5450 C.2     1  ZINC000863246516   -0.2000
      3 C3        -10.5641   -1.3665   59.5374 C.2     1  ZINC000863246516    0.0900
      4 C4         -9.3665   -2.2643   59.7124 C.3     1  ZINC000863246516   -0.1000
      5 N5        -11.1944   -1.2412   58.3353 N.am    1  ZINC000863246516   -0.5300
      6 C6        -10.7361   -1.9756   57.1534 C.3     1  ZINC000863246516    0.1200
      7 C7         -9.8567   -1.0635   56.2956 C.3     1  ZINC000863246516   -0.1500
      8 C8         -9.6057   -1.7178   54.9614 C.2     1  ZINC000863246516    0.5400
      9 O9         -9.8743   -2.8895   54.8004 O.2     1  ZINC000863246516   -0.5300
     10 N10        -9.0827   -1.0008   53.9470 N.am    1  ZINC000863246516   -0.6100
     11 C11        -8.7914   -1.5172   52.6048 C.3     1  ZINC000863246516    0.1100
     12 C12        -8.6577   -0.2935   51.6786 C.3     1  ZINC000863246516   -0.1300
     13 H13        -9.5239   -0.0862   51.0504 H       1  ZINC000863246516    0.1000
     14 C14        -7.2816   -0.1992   50.9988 C.3     1  ZINC000863246516   -0.1200
     15 C15        -6.7421    0.3524   52.3283 C.3     1  ZINC000863246516   -0.0600
     16 H16        -6.3897   -0.4213   53.0104 H       1  ZINC000863246516    0.1000
     17 C17        -5.7523    1.4760   52.1574 C.ar    1  ZINC000863246516   -0.0700
     18 C18        -5.6914    2.4917   53.0931 C.ar    1  ZINC000863246516   -0.1200
     19 C19        -4.7836    3.5223   52.9363 C.ar    1  ZINC000863246516   -0.1200
     20 C20        -3.9364    3.5370   51.8441 C.ar    1  ZINC000863246516   -0.1200
     21 C21        -3.9966    2.5207   50.9090 C.ar    1  ZINC000863246516   -0.1200
     22 C22        -4.9016    1.4878   51.0680 C.ar    1  ZINC000863246516   -0.1200
     23 C23        -8.1895    0.8352   52.6307 C.3     1  ZINC000863246516   -0.1100
     24 H24        -8.4218    1.8571   52.3307 H       1  ZINC000863246516    0.1200
     25 C25        -8.7213    0.4191   54.0102 C.3     1  ZINC000863246516    0.1200
     26 C26       -12.2529   -0.4174   58.2794 C.2     1  ZINC000863246516    0.4800
     27 O27       -12.9427   -0.1734   57.3054 O.2     1  ZINC000863246516   -0.4700
     28 S28       -12.4396    0.2185   59.8689 S.3     1  ZINC000863246516    0.0100
     29 H29       -11.1768    0.0555   62.5520 H       1  ZINC000863246516    0.0700
     30 H30       -10.5928   -1.6185   62.3944 H       1  ZINC000863246516    0.0800
     31 H31        -9.5231   -0.2594   61.9739 H       1  ZINC000863246516    0.0800
     32 H32        -9.0228   -2.2144   60.7456 H       1  ZINC000863246516    0.0900
     33 H33        -9.6433   -3.2905   59.4708 H       1  ZINC000863246516    0.0800
     34 H34        -8.5670   -1.9375   59.0474 H       1  ZINC000863246516    0.0800
     35 H35       -10.1596   -2.8457   57.4673 H       1  ZINC000863246516    0.1000
     36 H36       -11.5980   -2.3014   56.5713 H       1  ZINC000863246516    0.1000
     37 H37       -10.3621   -0.1099   56.1432 H       1  ZINC000863246516    0.1000
     38 H38        -8.9063   -0.8943   56.8018 H       1  ZINC000863246516    0.1000
     39 H39        -7.8581   -2.0802   52.6161 H       1  ZINC000863246516    0.0700
     40 H40        -9.6078   -2.1545   52.2651 H       1  ZINC000863246516    0.0800
     41 H41        -6.8624   -1.1679   50.7268 H       1  ZINC000863246516    0.0800
     42 H42        -7.2474    0.5216   50.1819 H       1  ZINC000863246516    0.0900
     43 H43        -6.3533    2.4803   53.9464 H       1  ZINC000863246516    0.1200
     44 H44        -4.7365    4.3163   53.6670 H       1  ZINC000863246516    0.1200
     45 H45        -3.2276    4.3425   51.7213 H       1  ZINC000863246516    0.1200
     46 H46        -3.3351    2.5323   50.0554 H       1  ZINC000863246516    0.1200
     47 H47        -4.9488    0.6939   50.3373 H       1  ZINC000863246516    0.1200
     48 H48        -9.5905    1.0243   54.2680 H       1  ZINC000863246516    0.0700
     49 H49        -7.9428    0.5533   54.7612 H       1  ZINC000863246516    0.0700
@<TRIPOS>BOND
     1     1     2    1
     2     1    29    1
     3     1    30    1
     4     1    31    1
     5     2    28    1
     6     2     3    2
     7     3     4    1
     8     3     5    1
     9     4    32    1
    10     4    33    1
    11     4    34    1
    12     5     6    1
    13     5    26   am
    14     6     7    1
    15     6    35    1
    16     6    36    1
    17     7     8    1
    18     7    37    1
    19     7    38    1
    20     8     9    2
    21     8    10   am
    22    10    25    1
    23    10    11    1
    24    11    12    1
    25    11    39    1
    26    11    40    1
    27    12    13    1
    28    12    23    1
    29    12    14    1
    30    14    15    1
    31    14    41    1
    32    14    42    1
    33    15    16    1
    34    15    17    1
    35    15    23    1
    36    17    22   ar
    37    17    18   ar
    38    18    19   ar
    39    18    43    1
    40    19    20   ar
    41    19    44    1
    42    20    21   ar
    43    20    45    1
    44    21    22   ar
    45    21    46    1
    46    22    47    1
    47    23    24    1
    48    23    25    1
    49    25    48    1
    50    25    49    1
    51    26    27    2
    52    26    28    1
@<TRIPOS>SUBSTRUCTURE
     1 ZINC000863246516        1 TEMP              0 ****  ****    0 ROOT


##########                                Name:    ZINC000646817380
##########                DOCK_Rotatable_Bonds:                   6
##########                         Heavy_Atoms:                  25
##########                    Molecular_Weight:             347.457
##########                DOCK_Rotatable_Bonds:                   6
##########                       Formal_Charge:           0.0199991
##########                     HBond_Acceptors:                   6
##########                        HBond_Donors:                   1
##########                         Heavy_Atoms:                  25
##########                          Grid_Score:          -27.313429
##########                     Grid_vdw_energy:          -27.479620
##########                      Grid_es_energy:            0.166192
##########           Internal_energy_repulsive:           59.199524

@<TRIPOS>MOLECULE
ZINC000646817380
 54 56 1 0 0
SMALL
USER_CHARGES


@<TRIPOS>ATOM
      1 C1         -0.0022    4.1738   47.6784 C.3     1  ZINC000646817380   -0.1500
      2 C2         -1.5023    4.0198   47.4200 C.3     1  ZINC000646817380   -0.0100
      3 C3         -1.7187    3.2635   46.1077 C.3     1  ZINC000646817380   -0.1500
      4 C4         -2.1309    3.2502   48.5530 C.2     1  ZINC000646817380   -0.0100
      5 C5         -3.2095    2.4378   48.4775 C.2     1  ZINC000646817380   -0.2200
      6 C6         -3.3805    1.9711   49.8082 C.2     1  ZINC000646817380    0.2400
      7 N7         -4.3636    1.0971   50.2685 N.am    1  ZINC000646817380   -0.6100
      8 C8         -4.8650    1.2410   51.5111 C.2     1  ZINC000646817380    0.5200
      9 O9         -4.4615    2.1324   52.2289 O.2     1  ZINC000646817380   -0.4900
     10 C10        -5.9175    0.3031   52.0051 C.2     1  ZINC000646817380    0.5300
     11 O11        -5.9570   -0.8370   51.5911 O.2     1  ZINC000646817380   -0.5100
     12 N12        -6.8232    0.7229   52.9106 N.am    1  ZINC000646817380   -0.5800
     13 C13        -6.8906    2.0709   53.4935 C.3     1  ZINC000646817380    0.1000
     14 C14        -8.0657    2.0793   54.4938 C.3     1  ZINC000646817380   -0.1300
     15 C15        -8.2403    0.5764   54.8375 C.3     1  ZINC000646817380   -0.1000
     16 H16        -7.5335    0.2670   55.6075 H       1  ZINC000646817380    0.1000
     17 C17        -9.6783    0.2749   55.2641 C.3     1  ZINC000646817380   -0.0700
     18 H18       -10.3671    0.9521   54.7593 H       1  ZINC000646817380    0.0800
     19 C19       -10.0337   -1.1881   54.9273 C.3     1  ZINC000646817380   -0.1300
     20 C20       -10.9221   -1.6453   56.1108 C.3     1  ZINC000646817380   -0.1300
     21 C21       -10.2519   -0.9585   57.3266 C.3     1  ZINC000646817380   -0.1200
     22 C22        -9.8174    0.4221   56.7895 C.3     1  ZINC000646817380   -0.0700
     23 C23        -8.4740    0.8235   57.4019 C.3     1  ZINC000646817380   -0.1600
     24 C24       -10.8800    1.4717   57.1214 C.3     1  ZINC000646817380   -0.1400
     25 C25        -7.9142   -0.0917   53.4759 C.3     1  ZINC000646817380    0.0900
     26 N26        -2.4303    2.5259   50.5144 N.2     1  ZINC000646817380   -0.3800
     27 O27        -1.7264    3.2328   49.8312 O.3     1  ZINC000646817380    0.1100
     28 H28         0.4524    4.7304   46.8590 H       1  ZINC000646817380    0.0700
     29 H29         0.1521    4.7125   48.6133 H       1  ZINC000646817380    0.0600
     30 H30         0.4577    3.1879   47.7472 H       1  ZINC000646817380    0.0600
     31 H31        -1.9622    5.0056   47.3512 H       1  ZINC000646817380    0.1100
     32 H32        -1.2588    2.2776   46.1765 H       1  ZINC000646817380    0.0600
     33 H33        -2.7874    3.1538   45.9235 H       1  ZINC000646817380    0.0600
     34 H34        -1.2640    3.8202   45.2883 H       1  ZINC000646817380    0.0700
     35 H35        -3.8032    2.1994   47.6074 H       1  ZINC000646817380    0.1900
     36 H36        -4.6870    0.3853   49.6944 H       1  ZINC000646817380    0.4300
     37 H37        -5.9596    2.2971   54.0133 H       1  ZINC000646817380    0.0800
     38 H38        -7.0671    2.8059   52.7082 H       1  ZINC000646817380    0.0800
     39 H39        -7.8090    2.6515   55.3854 H       1  ZINC000646817380    0.0900
     40 H40        -8.9673    2.4753   54.0264 H       1  ZINC000646817380    0.0800
     41 H41       -10.5892   -1.2399   53.9909 H       1  ZINC000646817380    0.0700
     42 H42        -9.1310   -1.7966   54.8706 H       1  ZINC000646817380    0.0800
     43 H43       -11.9458   -1.2931   55.9840 H       1  ZINC000646817380    0.0700
     44 H44       -10.8960   -2.7299   56.2170 H       1  ZINC000646817380    0.0700
     45 H45       -10.9669   -0.8426   58.1412 H       1  ZINC000646817380    0.0700
     46 H46        -9.3846   -1.5298   57.6574 H       1  ZINC000646817380    0.0700
     47 H47        -7.8333   -0.0549   57.4798 H       1  ZINC000646817380    0.0700
     48 H48        -7.9937    1.5684   56.7675 H       1  ZINC000646817380    0.0600
     49 H49        -8.6380    1.2429   58.3945 H       1  ZINC000646817380    0.0500
     50 H50       -10.9880    1.5499   58.2032 H       1  ZINC000646817380    0.0600
     51 H51       -10.5763    2.4368   56.7159 H       1  ZINC000646817380    0.0500
     52 H52       -11.8324    1.1762   56.6815 H       1  ZINC000646817380    0.0600
     53 H53        -8.7875   -0.0704   52.8241 H       1  ZINC000646817380    0.0900
     54 H54        -7.5780   -1.1174   53.6275 H       1  ZINC000646817380    0.1000
@<TRIPOS>BOND
     1     1     2    1
     2     1    28    1
     3     1    29    1
     4     1    30    1
     5     2     3    1
     6     2     4    1
     7     2    31    1
     8     3    32    1
     9     3    33    1
    10     3    34    1
    11     4    27    1
    12     4     5    2
    13     5     6    1
    14     5    35    1
    15     6     7    1
    16     6    26    2
    17     7     8   am
    18     7    36    1
    19     8     9    2
    20     8    10    1
    21    10    11    2
    22    10    12   am
    23    12    25    1
    24    12    13    1
    25    13    14    1
    26    13    37    1
    27    13    38    1
    28    14    15    1
    29    14    39    1
    30    14    40    1
    31    15    16    1
    32    15    17    1
    33    15    25    1
    34    17    18    1
    35    17    22    1
    36    17    19    1
    37    19    20    1
    38    19    41    1
    39    19    42    1
    40    20    21    1
    41    20    43    1
    42    20    44    1
    43    21    22    1
    44    21    45    1
    45    21    46    1
    46    22    23    1
    47    22    24    1
    48    23    47    1
    49    23    48    1
    50    23    49    1
    51    24    50    1
    52    24    51    1
    53    24    52    1
    54    25    53    1
    55    25    54    1
    56    26    27    1
@<TRIPOS>SUBSTRUCTURE
     1 ZINC000646817380        1 TEMP              0 ****  ****    0 ROOT


##########                                Name:    ZINC000650955167
##########                DOCK_Rotatable_Bonds:                   9
##########                         Heavy_Atoms:                  26
##########                    Molecular_Weight:             361.484
##########                DOCK_Rotatable_Bonds:                   9
##########                       Formal_Charge:        -7.07805e-07
##########                     HBond_Acceptors:                   6
##########                        HBond_Donors:                   2
##########                         Heavy_Atoms:                  26
##########                          Grid_Score:          -27.291658
##########                     Grid_vdw_energy:          -27.109030
##########                      Grid_es_energy:           -0.182628
##########           Internal_energy_repulsive:          100.214172

@<TRIPOS>MOLECULE
ZINC000650955167
 57 59 1 0 0
SMALL
USER_CHARGES


@<TRIPOS>ATOM
      1 C1         -6.0286    0.3216   51.8011 C.3     1  ZINC000650955167    0.0200
      2 O2         -6.9099   -0.2126   52.7911 O.3     1  ZINC000650955167   -0.3200
      3 C3         -8.2422   -0.1476   52.5308 C.ar    1  ZINC000650955167    0.1300
      4 C4         -8.8674   -1.1793   51.8462 C.ar    1  ZINC000650955167   -0.2000
      5 C5        -10.2221   -1.1110   51.5832 C.ar    1  ZINC000650955167   -0.0800
      6 C6        -10.9542   -0.0155   52.0013 C.ar    1  ZINC000650955167   -0.1500
      7 C7        -10.3332    1.0147   52.6835 C.ar    1  ZINC000650955167   -0.0800
      8 C8         -8.9803    0.9483   52.9543 C.ar    1  ZINC000650955167   -0.1100
      9 C9         -8.3042    2.0710   53.6983 C.3     1  ZINC000650955167   -0.0800
     10 C10        -7.4820    1.4952   54.8530 C.3     1  ZINC000650955167    0.1800
     11 H11        -6.5557    1.0724   54.4641 H       1  ZINC000650955167    0.0900
     12 N12        -8.2528    0.4466   55.5259 N.am    1  ZINC000650955167   -0.7300
     13 C13        -9.5819    0.5914   55.6961 C.2     1  ZINC000650955167    0.7400
     14 O14       -10.1415    1.5916   55.2899 O.2     1  ZINC000650955167   -0.5800
     15 N15       -10.2907   -0.3724   56.3165 N.am    1  ZINC000650955167   -0.6700
     16 C16       -11.7012   -0.5855   56.6746 C.3     1  ZINC000650955167    0.1100
     17 C17       -11.2172   -1.4645   57.8361 C.3     1  ZINC000650955167    0.0300
     18 N18       -12.0218   -2.6746   58.0516 N.3     1  ZINC000650955167   -0.5100
     19 C19       -12.0668   -3.5054   56.8295 C.3     1  ZINC000650955167    0.0400
     20 C20       -13.4741   -4.1527   56.8428 C.3     1  ZINC000650955167   -0.1600
     21 C21       -14.3433   -3.0012   57.4133 C.3     1  ZINC000650955167    0.0800
     22 H22       -14.6196   -2.3004   56.6256 H       1  ZINC000650955167    0.0600
     23 O23       -15.5086   -3.5195   58.0580 O.3     1  ZINC000650955167   -0.5600
     24 C24       -13.4027   -2.3295   58.4359 C.3     1  ZINC000650955167    0.0500
     25 C25        -9.9951   -1.6771   56.9277 C.3     1  ZINC000650955167    0.1400
     26 C26        -7.1553    2.6080   55.8509 C.3     1  ZINC000650955167   -0.1100
     27 C27        -8.4375    3.0508   56.5587 C.3     1  ZINC000650955167   -0.1400
     28 C28        -6.1553    2.0877   56.8856 C.3     1  ZINC000650955167   -0.1500
     29 H29        -4.9968    0.2065   52.1331 H       1  ZINC000650955167    0.1000
     30 H30        -6.1700   -0.2135   50.8621 H       1  ZINC000650955167    0.0600
     31 H31        -6.2468    1.3792   51.6531 H       1  ZINC000650955167    0.0600
     32 H32        -8.2958   -2.0351   51.5188 H       1  ZINC000650955167    0.1300
     33 H33       -10.7094   -1.9141   51.0503 H       1  ZINC000650955167    0.1200
     34 H34       -12.0130    0.0362   51.7945 H       1  ZINC000650955167    0.1200
     35 H35       -10.9072    1.8697   53.0088 H       1  ZINC000650955167    0.1300
     36 H36        -7.6463    2.6128   53.0187 H       1  ZINC000650955167    0.0900
     37 H37        -9.0586    2.7514   54.0932 H       1  ZINC000650955167    0.0800
     38 H38        -7.8065   -0.3517   55.8488 H       1  ZINC000650955167    0.4000
     39 H39       -12.2085    0.3228   56.9996 H       1  ZINC000650955167    0.0700
     40 H40       -12.2625   -1.1351   55.9190 H       1  ZINC000650955167    0.0900
     41 H41       -11.0091   -0.9162   58.7550 H       1  ZINC000650955167    0.0900
     42 H42       -11.9437   -2.8832   55.9430 H       1  ZINC000650955167    0.0500
     43 H43       -11.2951   -4.2743   56.8646 H       1  ZINC000650955167    0.0900
     44 H44       -13.7912   -4.4186   55.8344 H       1  ZINC000650955167    0.0800
     45 H45       -13.4977   -5.0221   57.4999 H       1  ZINC000650955167    0.0900
     46 H46       -16.0870   -2.8399   58.4304 H       1  ZINC000650955167    0.3800
     47 H47       -13.6140   -2.7055   59.4369 H       1  ZINC000650955167    0.0900
     48 H48       -13.5362   -1.2480   58.4079 H       1  ZINC000650955167    0.0700
     49 H49       -10.1051   -2.5166   56.2414 H       1  ZINC000650955167    0.0900
     50 H50        -9.0495   -1.6961   57.4695 H       1  ZINC000650955167    0.0800
     51 H51        -6.7216    3.4558   55.3208 H       1  ZINC000650955167    0.0700
     52 H52        -8.8712    2.2030   57.0890 H       1  ZINC000650955167    0.0600
     53 H53        -8.2048    3.8435   57.2698 H       1  ZINC000650955167    0.0400
     54 H54        -9.1499    3.4214   55.8216 H       1  ZINC000650955167    0.0500
     55 H55        -5.2419    1.7722   56.3814 H       1  ZINC000650955167    0.0600
     56 H56        -5.9227    2.8804   57.5965 H       1  ZINC000650955167    0.0600
     57 H57        -6.5892    1.2398   57.4157 H       1  ZINC000650955167    0.0600
@<TRIPOS>BOND
     1     1     2    1
     2     1    29    1
     3     1    30    1
     4     1    31    1
     5     2     3    1
     6     3     8   ar
     7     3     4   ar
     8     4     5   ar
     9     4    32    1
    10     5     6   ar
    11     5    33    1
    12     6     7   ar
    13     6    34    1
    14     7     8   ar
    15     7    35    1
    16     8     9    1
    17     9    10    1
    18     9    36    1
    19     9    37    1
    20    10    11    1
    21    10    12    1
    22    10    26    1
    23    12    13   am
    24    12    38    1
    25    13    14    2
    26    13    15   am
    27    15    25    1
    28    15    16    1
    29    16    17    1
    30    16    39    1
    31    16    40    1
    32    17    18    1
    33    17    25    1
    34    17    41    1
    35    18    24    1
    36    18    19    1
    37    19    20    1
    38    19    42    1
    39    19    43    1
    40    20    21    1
    41    20    44    1
    42    20    45    1
    43    21    22    1
    44    21    23    1
    45    21    24    1
    46    23    46    1
    47    24    47    1
    48    24    48    1
    49    25    49    1
    50    25    50    1
    51    26    27    1
    52    26    28    1
    53    26    51    1
    54    27    52    1
    55    27    53    1
    56    27    54    1
    57    28    55    1
    58    28    56    1
    59    28    57    1
@<TRIPOS>SUBSTRUCTURE
     1 ZINC000650955167        1 TEMP              0 ****  ****    0 ROOT


##########                                Name:    ZINC001248546333
##########                DOCK_Rotatable_Bonds:                   6
##########                         Heavy_Atoms:                  27
##########                    Molecular_Weight:             378.397
##########                DOCK_Rotatable_Bonds:                   6
##########                       Formal_Charge:         3.94881e-07
##########                     HBond_Acceptors:                   8
##########                        HBond_Donors:                   1
##########                         Heavy_Atoms:                  27
##########                          Grid_Score:          -27.282108
##########                     Grid_vdw_energy:          -27.402493
##########                      Grid_es_energy:            0.120384
##########           Internal_energy_repulsive:           29.914993

@<TRIPOS>MOLECULE
ZINC001248546333
 48 50 1 0 0
SMALL
USER_CHARGES


@<TRIPOS>ATOM
      1 C1         -6.9731    3.9962   55.7767 C.3     1  ZINC001248546333   -0.1200
      2 C2         -5.4915    4.2611   55.8536 C.ar    1  ZINC001248546333   -0.0800
      3 C3         -4.9465    4.8051   57.0026 C.ar    1  ZINC001248546333   -0.1200
      4 C4         -3.5872    5.0513   57.0812 C.ar    1  ZINC001248546333   -0.1100
      5 C5         -2.7666    4.7548   56.0127 C.ar    1  ZINC001248546333   -0.1100
      6 C6         -3.3101    4.2053   54.8508 C.ar    1  ZINC001248546333   -0.0600
      7 C7         -2.4366    3.8851   53.7021 C.2     1  ZINC001248546333   -0.0600
      8 C8         -1.1541    4.1290   53.8224 C.2     1  ZINC001248546333   -0.1700
      9 C9         -0.1553    3.8688   52.7290 C.3     1  ZINC001248546333    0.1500
     10 N10        -0.7969    3.0799   51.6675 N.am    1  ZINC001248546333   -0.6300
     11 C11        -0.1644    2.0412   51.0866 C.2     1  ZINC001248546333    0.7200
     12 O12         0.9599    1.7403   51.4384 O.2     1  ZINC001248546333   -0.5800
     13 N13        -0.7780    1.3361   50.1156 N.am    1  ZINC001248546333   -0.7500
     14 C14        -0.0904    0.2071   49.4841 C.3     1  ZINC001248546333    0.2000
     15 C15        -0.5414    0.0818   48.0517 C.2     1  ZINC001248546333    0.0700
     16 C16        -1.0204    1.0815   47.2757 C.2     1  ZINC001248546333   -0.2000
     17 C17        -1.3214    0.5447   46.0196 C.2     1  ZINC001248546333   -0.0200
     18 C18        -1.8801    1.3052   44.8446 C.3     1  ZINC001248546333    0.5600
     19 F19        -2.9508    2.0992   45.2695 F       1  ZINC001248546333   -0.1700
     20 F20        -0.8824    2.1204   44.2997 F       1  ZINC001248546333   -0.1700
     21 F21        -2.3260    0.4019   43.8738 F       1  ZINC001248546333   -0.1600
     22 N22        -1.0335   -0.7313   46.0407 N.2     1  ZINC001248546333   -0.2200
     23 N23        -0.5344   -1.0464   47.3112 N.pl3   1  ZINC001248546333   -0.3400
     24 C24        -0.0915   -2.3689   47.7596 C.3     1  ZINC001248546333    0.0900
     25 C25        -2.1588    3.4704   51.2638 C.3     1  ZINC001248546333    0.1300
     26 C26        -3.0762    3.2975   52.4793 C.3     1  ZINC001248546333   -0.1000
     27 C27        -4.6808    3.9550   54.7797 C.ar    1  ZINC001248546333   -0.1100
     28 H28        -7.1816    2.9896   56.1391 H       1  ZINC001248546333    0.0700
     29 H29        -7.5044    4.7215   56.3930 H       1  ZINC001248546333    0.0700
     30 H30        -7.3050    4.0860   54.7423 H       1  ZINC001248546333    0.0700
     31 H31        -5.5847    5.0391   57.8419 H       1  ZINC001248546333    0.1200
     32 H32        -3.1679    5.4769   57.9809 H       1  ZINC001248546333    0.1200
     33 H33        -1.7058    4.9478   56.0752 H       1  ZINC001248546333    0.1200
     34 H34        -0.7962    4.5384   54.7555 H       1  ZINC001248546333    0.1200
     35 H35         0.1912    4.8173   52.3190 H       1  ZINC001248546333    0.0800
     36 H36         0.6915    3.3145   53.1336 H       1  ZINC001248546333    0.0800
     37 H37        -1.6749    1.5761   49.8349 H       1  ZINC001248546333    0.4000
     38 H38         0.9862    0.3754   49.5127 H       1  ZINC001248546333    0.1000
     39 H39        -0.3290   -0.7105   50.0218 H       1  ZINC001248546333    0.0900
     40 H40        -1.1480    2.1116   47.5737 H       1  ZINC001248546333    0.1700
     41 H41         0.9711   -2.4874   47.5480 H       1  ZINC001248546333    0.0900
     42 H42        -0.2614   -2.4646   48.8320 H       1  ZINC001248546333    0.1000
     43 H43        -0.6551   -3.1387   47.2324 H       1  ZINC001248546333    0.1000
     44 H44        -2.1629    4.5110   50.9395 H       1  ZINC001248546333    0.0700
     45 H45        -2.5006    2.8290   50.4515 H       1  ZINC001248546333    0.1000
     46 H46        -3.2663    2.2362   52.6394 H       1  ZINC001248546333    0.0800
     47 H47        -4.0219    3.8062   52.2923 H       1  ZINC001248546333    0.0900
     48 H48        -5.1076    3.5299   53.8832 H       1  ZINC001248546333    0.1200
@<TRIPOS>BOND
     1     1     2    1
     2     1    28    1
     3     1    29    1
     4     1    30    1
     5     2    27   ar
     6     2     3   ar
     7     3     4   ar
     8     3    31    1
     9     4     5   ar
    10     4    32    1
    11     5     6   ar
    12     5    33    1
    13     6     7    1
    14     6    27   ar
    15     7    26    1
    16     7     8    2
    17     8     9    1
    18     8    34    1
    19     9    10    1
    20     9    35    1
    21     9    36    1
    22    10    11   am
    23    10    25    1
    24    11    12    2
    25    11    13   am
    26    13    14    1
    27    13    37    1
    28    14    15    1
    29    14    38    1
    30    14    39    1
    31    15    23    1
    32    15    16    2
    33    16    17    1
    34    16    40    1
    35    17    18    1
    36    17    22    2
    37    18    19    1
    38    18    20    1
    39    18    21    1
    40    22    23    1
    41    23    24    1
    42    24    41    1
    43    24    42    1
    44    24    43    1
    45    25    26    1
    46    25    44    1
    47    25    45    1
    48    26    46    1
    49    26    47    1
    50    27    48    1
@<TRIPOS>SUBSTRUCTURE
     1 ZINC001248546333        1 TEMP              0 ****  ****    0 ROOT


##########                                Name:    ZINC000957079511
##########                DOCK_Rotatable_Bonds:                   8
##########                         Heavy_Atoms:                  25
##########                    Molecular_Weight:             362.453
##########                DOCK_Rotatable_Bonds:                   8
##########                       Formal_Charge:        -4.32134e-07
##########                     HBond_Acceptors:                   8
##########                        HBond_Donors:                   2
##########                         Heavy_Atoms:                  25
##########                          Grid_Score:          -27.266575
##########                     Grid_vdw_energy:          -27.055437
##########                      Grid_es_energy:           -0.211138
##########           Internal_energy_repulsive:           16.367325

@<TRIPOS>MOLECULE
ZINC000957079511
 47 49 1 0 0
SMALL
USER_CHARGES


@<TRIPOS>ATOM
      1 C1         -0.8751   -0.1259   41.7321 C.3     1  ZINC000957079511   -0.0700
      2 C2         -0.0940    0.4486   42.8859 C.2     1  ZINC000957079511    0.0300
      3 C3         -0.5815    0.7306   44.1091 C.2     1  ZINC000957079511   -0.0200
      4 C4         -1.9998    0.5327   44.5785 C.3     1  ZINC000957079511   -0.0600
      5 C5         -2.0261    0.4668   46.0838 C.2     1  ZINC000957079511    0.5100
      6 O6         -2.0847   -0.6079   46.6429 O.2     1  ZINC000957079511   -0.5200
      7 N7         -1.9847    1.6022   46.8089 N.am    1  ZINC000957079511   -0.7200
      8 C8         -2.0121    1.5382   48.2723 C.3     1  ZINC000957079511    0.1400
      9 H9         -2.5565    0.6573   48.6126 H       1  ZINC000957079511    0.1100
     10 C10        -2.6172    2.8314   48.8733 C.3     1  ZINC000957079511    0.0800
     11 N11        -2.0494    2.9180   50.2311 N.am    1  ZINC000957079511   -0.6200
     12 C12        -2.5986    3.5755   51.2716 C.2     1  ZINC000957079511    0.5400
     13 O13        -2.0420    3.5781   52.3492 O.2     1  ZINC000957079511   -0.5100
     14 C14        -3.9043    4.3072   51.0961 C.3     1  ZINC000957079511    0.0500
     15 O15        -4.9895    3.4118   51.3465 O.3     1  ZINC000957079511   -0.2800
     16 C16        -5.3277    3.1987   52.6487 C.2     1  ZINC000957079511    0.1200
     17 C17        -4.9378    4.0107   53.6357 C.2     1  ZINC000957079511   -0.3300
     18 S18        -5.5625    3.4182   55.1692 S.3     1  ZINC000957079511    0.1300
     19 C19        -6.3410    2.0622   54.3640 C.2     1  ZINC000957079511   -0.1800
     20 C20        -6.1079    2.1255   53.0517 C.2     1  ZINC000957079511   -0.1400
     21 C21        -0.7854    2.1677   50.2624 C.3     1  ZINC000957079511    0.1100
     22 C22        -0.5752    1.5643   48.8571 C.3     1  ZINC000957079511   -0.1100
     23 H23         0.0733    2.2023   48.2566 H       1  ZINC000957079511    0.0900
     24 C24         0.0005    0.1502   48.9557 C.3     1  ZINC000957079511   -0.1400
     25 N25         0.4590    1.2309   44.8445 N.pl3   1  ZINC000957079511   -0.5600
     26 C26         1.5468    1.2373   44.0443 C.2     1  ZINC000957079511    0.2000
     27 N27         1.2098    0.7635   42.8760 N.2     1  ZINC000957079511   -0.4900
     28 H28        -0.8312   -1.2144   41.7699 H       1  ZINC000957079511    0.0700
     29 H29        -1.9135    0.1984   41.7990 H       1  ZINC000957079511    0.0600
     30 H30        -0.4453    0.2226   40.7930 H       1  ZINC000957079511    0.0700
     31 H31        -2.6142    1.3673   44.2406 H       1  ZINC000957079511    0.1000
     32 H32        -2.3923   -0.3972   44.1671 H       1  ZINC000957079511    0.1200
     33 H33        -1.9367    2.4617   46.3619 H       1  ZINC000957079511    0.4000
     34 H34        -2.3217    3.6986   48.2826 H       1  ZINC000957079511    0.0800
     35 H35        -3.7034    2.7558   48.9204 H       1  ZINC000957079511    0.0800
     36 H36        -3.9511    5.1399   51.7978 H       1  ZINC000957079511    0.0900
     37 H37        -3.9740    4.6866   50.0767 H       1  ZINC000957079511    0.0900
     38 H38        -4.3312    4.8956   53.5109 H       1  ZINC000957079511    0.1700
     39 H39        -6.9227    1.2970   54.8563 H       1  ZINC000957079511    0.1800
     40 H40        -6.4914    1.3926   52.3573 H       1  ZINC000957079511    0.1500
     41 H41         0.0382    2.8391   50.5049 H       1  ZINC000957079511    0.0800
     42 H42        -0.8463    1.3698   51.0024 H       1  ZINC000957079511    0.0800
     43 H43        -0.6768   -0.4782   49.5340 H       1  ZINC000957079511    0.0600
     44 H44         0.1164   -0.2654   47.9548 H       1  ZINC000957079511    0.0600
     45 H45         0.9720    0.1871   49.4486 H       1  ZINC000957079511    0.0700
     46 H46         0.4219    1.5258   45.7678 H       1  ZINC000957079511    0.4200
     47 H47         2.5334    1.5748   44.3259 H       1  ZINC000957079511    0.2100
@<TRIPOS>BOND
     1     1     2    1
     2     1    28    1
     3     1    29    1
     4     1    30    1
     5     2    27    1
     6     2     3    2
     7     3     4    1
     8     3    25    1
     9     4     5    1
    10     4    31    1
    11     4    32    1
    12     5     6    2
    13     5     7   am
    14     7     8    1
    15     7    33    1
    16     8     9    1
    17     8    22    1
    18     8    10    1
    19    10    11    1
    20    10    34    1
    21    10    35    1
    22    11    12   am
    23    11    21    1
    24    12    13    2
    25    12    14    1
    26    14    15    1
    27    14    36    1
    28    14    37    1
    29    15    16    1
    30    16    20    1
    31    16    17    2
    32    17    18    1
    33    17    38    1
    34    18    19    1
    35    19    20    2
    36    19    39    1
    37    20    40    1
    38    21    22    1
    39    21    41    1
    40    21    42    1
    41    22    23    1
    42    22    24    1
    43    24    43    1
    44    24    44    1
    45    24    45    1
    46    25    26    1
    47    25    46    1
    48    26    27    2
    49    26    47    1
@<TRIPOS>SUBSTRUCTURE
     1 ZINC000957079511        1 TEMP              0 ****  ****    0 ROOT


##########                                Name:    ZINC000962730513
##########                DOCK_Rotatable_Bonds:                   6
##########                         Heavy_Atoms:                  24
##########                    Molecular_Weight:             342.465
##########                DOCK_Rotatable_Bonds:                   6
##########                       Formal_Charge:         -0.00999998
##########                     HBond_Acceptors:                   6
##########                        HBond_Donors:                   1
##########                         Heavy_Atoms:                  24
##########                          Grid_Score:          -27.253059
##########                     Grid_vdw_energy:          -26.763514
##########                      Grid_es_energy:           -0.489546
##########           Internal_energy_repulsive:            9.538086

@<TRIPOS>MOLECULE
ZINC000962730513
 46 49 1 0 0
SMALL
USER_CHARGES


@<TRIPOS>ATOM
      1 C1        -11.2686    3.9775   51.2131 C.3     1  ZINC000962730513   -0.1400
      2 C2        -11.4440    2.5075   51.5994 C.3     1  ZINC000962730513   -0.0800
      3 C3        -12.5400    1.8962   50.7650 C.2     1  ZINC000962730513   -0.0100
      4 C4        -13.2723    0.8133   51.1635 C.2     1  ZINC000962730513   -0.2800
      5 C5        -13.1097    0.0969   52.4320 C.2     1  ZINC000962730513    0.6000
      6 O6        -14.0882   -0.2083   53.0882 O.2     1  ZINC000962730513   -0.5200
      7 N7        -11.8767   -0.2237   52.8715 N.am    1  ZINC000962730513   -0.7000
      8 C8        -11.7141   -0.9381   54.1402 C.3     1  ZINC000962730513    0.1200
      9 H9        -12.6109   -1.4250   54.5231 H       1  ZINC000962730513    0.1400
     10 C10       -10.7415   -0.3470   55.1626 C.3     1  ZINC000962730513   -0.1700
     11 H11       -10.2562    0.6064   54.9537 H       1  ZINC000962730513    0.1200
     12 C12       -10.9005   -0.7598   56.6416 C.3     1  ZINC000962730513    0.0700
     13 N13       -10.0995   -2.0041   56.7713 N.3     1  ZINC000962730513   -0.5000
     14 C14       -10.5268   -2.7861   57.9392 C.3     1  ZINC000962730513    0.1100
     15 C15        -9.9131   -2.2031   59.1860 C.ar    1  ZINC000962730513    0.3200
     16 N16        -8.6195   -1.9516   59.2070 N.ar    1  ZINC000962730513   -0.5100
     17 C17        -8.0458   -1.4398   60.2841 C.ar    1  ZINC000962730513    0.1500
     18 C18        -8.8242   -1.1687   61.3982 C.ar    1  ZINC000962730513   -0.1900
     19 C19        -8.2107   -0.5853   62.6448 C.3     1  ZINC000962730513   -0.1100
     20 C20       -10.1807   -1.4467   61.3381 C.ar    1  ZINC000962730513    0.1500
     21 N21       -10.6852   -1.9534   60.2245 N.ar    1  ZINC000962730513   -0.5000
     22 C22       -10.3655   -2.7426   55.5099 C.3     1  ZINC000962730513    0.0700
     23 C23       -10.3733   -1.6305   54.3927 C.3     1  ZINC000962730513   -0.1700
     24 H24        -9.5931   -1.6726   53.6327 H       1  ZINC000962730513    0.1300
     25 S25       -14.4410    0.4174   49.9109 S.3     1  ZINC000962730513    0.1900
     26 C26       -13.8971    1.7040   48.9313 C.2     1  ZINC000962730513   -0.2200
     27 C27       -12.9065    2.3758   49.5301 C.2     1  ZINC000962730513   -0.1500
     28 H28       -11.0035    4.0468   50.1581 H       1  ZINC000962730513    0.0600
     29 H29       -12.2012    4.5133   51.3895 H       1  ZINC000962730513    0.0500
     30 H30       -10.4759    4.4197   51.8167 H       1  ZINC000962730513    0.0600
     31 H31       -10.5113    1.9717   51.4231 H       1  ZINC000962730513    0.1000
     32 H32       -11.7090    2.4382   52.6545 H       1  ZINC000962730513    0.0700
     33 H33       -11.0969    0.0186   52.3479 H       1  ZINC000962730513    0.4000
     34 H34       -10.5060    0.0163   57.2975 H       1  ZINC000962730513    0.0900
     35 H35       -11.9478   -0.9563   56.8710 H       1  ZINC000962730513    0.0500
     36 H36       -11.6134   -2.7543   58.0200 H       1  ZINC000962730513    0.1000
     37 H37       -10.2012   -3.8198   57.8232 H       1  ZINC000962730513    0.0700
     38 H38        -6.9852   -1.2363   60.2948 H       1  ZINC000962730513    0.1700
     39 H39        -8.2416    0.5029   62.5900 H       1  ZINC000962730513    0.0800
     40 H40        -8.7713   -0.9211   63.5172 H       1  ZINC000962730513    0.0700
     41 H41        -7.1754   -0.9156   62.7291 H       1  ZINC000962730513    0.0700
     42 H42       -10.8181   -1.2490   62.1872 H       1  ZINC000962730513    0.1700
     43 H43        -9.5682   -3.4594   55.3137 H       1  ZINC000962730513    0.0800
     44 H44       -11.3291   -3.2493   55.5622 H       1  ZINC000962730513    0.0600
     45 H45       -14.3009    1.9466   47.9595 H       1  ZINC000962730513    0.1700
     46 H46       -12.4248    3.2274   49.0728 H       1  ZINC000962730513    0.1500
@<TRIPOS>BOND
     1     1     2    1
     2     1    28    1
     3     1    29    1
     4     1    30    1
     5     2     3    1
     6     2    31    1
     7     2    32    1
     8     3    27    1
     9     3     4    2
    10     4     5    1
    11     4    25    1
    12     5     6    2
    13     5     7   am
    14     7     8    1
    15     7    33    1
    16     8     9    1
    17     8    23    1
    18     8    10    1
    19    10    11    1
    20    10    23    1
    21    10    12    1
    22    12    13    1
    23    12    34    1
    24    12    35    1
    25    13    14    1
    26    13    22    1
    27    14    15    1
    28    14    36    1
    29    14    37    1
    30    15    21   ar
    31    15    16   ar
    32    16    17   ar
    33    17    18   ar
    34    17    38    1
    35    18    19    1
    36    18    20   ar
    37    19    39    1
    38    19    40    1
    39    19    41    1
    40    20    21   ar
    41    20    42    1
    42    22    23    1
    43    22    43    1
    44    22    44    1
    45    23    24    1
    46    25    26    1
    47    26    27    2
    48    26    45    1
    49    27    46    1
@<TRIPOS>SUBSTRUCTURE
     1 ZINC000962730513        1 TEMP              0 ****  ****    0 ROOT


##########                                Name:    ZINC000540473851
##########                DOCK_Rotatable_Bonds:                   5
##########                         Heavy_Atoms:                  29
##########                    Molecular_Weight:             411.503
##########                DOCK_Rotatable_Bonds:                   5
##########                       Formal_Charge:           0.0200001
##########                     HBond_Acceptors:                   8
##########                        HBond_Donors:                   0
##########                         Heavy_Atoms:                  29
##########                          Grid_Score:          -27.252193
##########                     Grid_vdw_energy:          -26.401651
##########                      Grid_es_energy:           -0.850541
##########           Internal_energy_repulsive:           25.673906

@<TRIPOS>MOLECULE
ZINC000540473851
 51 54 1 0 0
SMALL
USER_CHARGES


@<TRIPOS>ATOM
      1 C1        -12.8631   -2.1669   59.9823 C.3     1  ZINC000540473851   -0.0800
      2 C2        -11.5290   -1.5545   60.3230 C.2     1  ZINC000540473851    0.1500
      3 C3        -10.4401   -1.6315   59.4958 C.2     1  ZINC000540473851   -0.3100
      4 C4        -10.3915   -2.2976   58.1886 C.2     1  ZINC000540473851    0.6000
      5 O5         -9.8488   -3.3810   58.0777 O.2     1  ZINC000540473851   -0.5100
      6 N6        -10.9479   -1.7092   57.1113 N.am    1  ZINC000540473851   -0.6100
      7 C7        -11.6036   -0.3973   57.2221 C.3     1  ZINC000540473851    0.1000
      8 C8        -11.0320    0.5254   56.1404 C.3     1  ZINC000540473851    0.0400
      9 N9        -11.1604   -0.1244   54.8291 N.3     1  ZINC000540473851   -0.5300
     10 C10       -10.7828    0.7945   53.7470 C.3     1  ZINC000540473851    0.1200
     11 H11       -10.7704    1.8165   54.1259 H       1  ZINC000540473851    0.0500
     12 C12       -11.7982    0.6853   52.6077 C.3     1  ZINC000540473851   -0.1400
     13 C13        -9.4126    0.4318   53.2352 C.ar    1  ZINC000540473851   -0.0500
     14 C14        -8.2894    1.0014   53.8046 C.ar    1  ZINC000540473851   -0.1000
     15 C15        -7.0315    0.6697   53.3361 C.ar    1  ZINC000540473851   -0.0900
     16 C16        -6.8961   -0.2319   52.2977 C.ar    1  ZINC000540473851   -0.1500
     17 C17        -8.0208   -0.8036   51.7268 C.ar    1  ZINC000540473851    0.1000
     18 F18        -7.8895   -1.6853   50.7116 F       1  ZINC000540473851   -0.1400
     19 C19        -9.2794   -0.4747   52.2003 C.ar    1  ZINC000540473851   -0.1500
     20 C20       -10.3712   -1.3619   54.7682 C.3     1  ZINC000540473851    0.0400
     21 C21       -10.9103   -2.3592   55.7924 C.3     1  ZINC000540473851    0.1200
     22 S22        -9.1083   -0.7872   60.2821 S.3     1  ZINC000540473851    0.2800
     23 C23       -10.1132   -0.4189   61.6149 C.2     1  ZINC000540473851    0.0800
     24 C24        -9.6852    0.3440   62.8082 C.ar    1  ZINC000540473851    0.3800
     25 N25       -10.5905    0.6917   63.7138 N.ar    1  ZINC000540473851   -0.5100
     26 C26       -10.2413    1.3732   64.7906 C.ar    1  ZINC000540473851    0.1600
     27 C27        -8.9107    1.7245   64.9675 C.ar    1  ZINC000540473851   -0.2100
     28 C28        -7.9900    1.3449   64.0013 C.ar    1  ZINC000540473851    0.1500
     29 N29        -8.4042    0.6596   62.9502 N.ar    1  ZINC000540473851   -0.4700
     30 N30       -11.3101   -0.8986   61.4303 N.2     1  ZINC000540473851   -0.4300
     31 H31       -13.4682   -1.4410   59.4391 H       1  ZINC000540473851    0.0900
     32 H32       -12.7099   -3.0494   59.3612 H       1  ZINC000540473851    0.0800
     33 H33       -13.3764   -2.4535   60.9003 H       1  ZINC000540473851    0.0800
     34 H34       -12.6777   -0.5112   57.0760 H       1  ZINC000540473851    0.0900
     35 H35       -11.4081    0.0277   58.2066 H       1  ZINC000540473851    0.0900
     36 H36       -11.5834    1.4657   56.1358 H       1  ZINC000540473851    0.1000
     37 H37        -9.9800    0.7211   56.3479 H       1  ZINC000540473851    0.0400
     38 H38       -11.8107   -0.3366   52.2289 H       1  ZINC000540473851    0.0700
     39 H39       -12.7893    0.9477   52.9780 H       1  ZINC000540473851    0.0600
     40 H40       -11.5181    1.3672   51.8048 H       1  ZINC000540473851    0.0600
     41 H41        -8.3943    1.7066   54.6160 H       1  ZINC000540473851    0.1400
     42 H42        -6.1545    1.1157   53.7815 H       1  ZINC000540473851    0.1300
     43 H43        -5.9135   -0.4904   51.9315 H       1  ZINC000540473851    0.1300
     44 H44       -10.1572   -0.9202   51.7560 H       1  ZINC000540473851    0.1300
     45 H45       -10.4434   -1.7905   53.7685 H       1  ZINC000540473851    0.1000
     46 H46        -9.3284   -1.1399   54.9948 H       1  ZINC000540473851    0.0400
     47 H47       -10.2591   -3.2324   55.8313 H       1  ZINC000540473851    0.1000
     48 H48       -11.9188   -2.6632   55.5119 H       1  ZINC000540473851    0.0800
     49 H49       -10.9827    1.6538   65.5241 H       1  ZINC000540473851    0.1800
     50 H50        -8.5983    2.2817   65.8384 H       1  ZINC000540473851    0.1600
     51 H51        -6.9469    1.6027   64.1092 H       1  ZINC000540473851    0.1800
@<TRIPOS>BOND
     1     1     2    1
     2     1    31    1
     3     1    32    1
     4     1    33    1
     5     2    30    1
     6     2     3    2
     7     3     4    1
     8     3    22    1
     9     4     5    2
    10     4     6   am
    11     6    21    1
    12     6     7    1
    13     7     8    1
    14     7    34    1
    15     7    35    1
    16     8     9    1
    17     8    36    1
    18     8    37    1
    19     9    10    1
    20     9    20    1
    21    10    11    1
    22    10    12    1
    23    10    13    1
    24    12    38    1
    25    12    39    1
    26    12    40    1
    27    13    19   ar
    28    13    14   ar
    29    14    15   ar
    30    14    41    1
    31    15    16   ar
    32    15    42    1
    33    16    17   ar
    34    16    43    1
    35    17    18    1
    36    17    19   ar
    37    19    44    1
    38    20    21    1
    39    20    45    1
    40    20    46    1
    41    21    47    1
    42    21    48    1
    43    22    23    1
    44    23    24    1
    45    23    30    2
    46    24    29   ar
    47    24    25   ar
    48    25    26   ar
    49    26    27   ar
    50    26    49    1
    51    27    28   ar
    52    27    50    1
    53    28    29   ar
    54    28    51    1
@<TRIPOS>SUBSTRUCTURE
     1 ZINC000540473851        1 TEMP              0 ****  ****    0 ROOT


##########                                Name:    ZINC000504860563
##########                DOCK_Rotatable_Bonds:                   6
##########                         Heavy_Atoms:                  25
##########                    Molecular_Weight:             370.786
##########                DOCK_Rotatable_Bonds:                   6
##########                       Formal_Charge:                0.01
##########                     HBond_Acceptors:                   9
##########                        HBond_Donors:                   0
##########                         Heavy_Atoms:                  25
##########                          Grid_Score:          -27.246414
##########                     Grid_vdw_energy:          -26.731802
##########                      Grid_es_energy:           -0.514611
##########           Internal_energy_repulsive:           22.324883

@<TRIPOS>MOLECULE
ZINC000504860563
 42 44 1 0 0
SMALL
USER_CHARGES


@<TRIPOS>ATOM
      1 O1        -10.4486   -1.8881   51.1480 O.2     1  ZINC000504860563   -0.5100
      2 C2        -10.2219   -1.1289   52.0698 C.2     1  ZINC000504860563    0.5700
      3 C3        -11.3418   -0.5210   52.8193 C.ar    1  ZINC000504860563    0.0500
      4 N4        -11.5810   -0.8990   54.0700 N.ar    1  ZINC000504860563   -0.4100
      5 C5        -12.5657   -0.3833   54.7709 C.ar    1  ZINC000504860563    0.0600
      6 C6        -13.4006    0.5830   54.2291 C.ar    1  ZINC000504860563   -0.1000
      7 C7        -13.1928    1.0104   52.9298 C.ar    1  ZINC000504860563   -0.1700
      8 C8        -12.1394    0.4531   52.2085 C.ar    1  ZINC000504860563    0.1400
      9 O9        -11.8967    0.8411   50.9316 O.3     1  ZINC000504860563   -0.2600
     10 C10       -11.9788    2.2401   50.6521 C.3     1  ZINC000504860563   -0.0100
     11 C11       -10.8620    2.9753   51.3957 C.3     1  ZINC000504860563    0.2800
     12 F12       -10.9752    4.3506   51.1656 F       1  ZINC000504860563   -0.1900
     13 F13       -10.9695    2.7217   52.7674 F       1  ZINC000504860563   -0.1900
     14 N14        -8.9494   -0.8455   52.4122 N.am    1  ZINC000504860563   -0.6000
     15 C15        -7.8259   -1.4372   51.6731 C.3     1  ZINC000504860563    0.0800
     16 C16        -6.8990   -0.3123   51.2015 C.3     1  ZINC000504860563   -0.1500
     17 C17        -6.4823    0.5377   52.4040 C.3     1  ZINC000504860563    0.1600
     18 N18        -5.5694    1.5946   51.9618 N.pl3   1  ZINC000504860563   -0.3600
     19 C19        -5.4763    2.8352   52.4870 C.2     1  ZINC000504860563    0.0700
     20 C20        -4.5184    3.5023   51.8016 C.2     1  ZINC000504860563   -0.1900
     21 Cl21       -4.0110    5.1381   52.0851 Cl      1  ZINC000504860563   -0.0400
     22 C22        -4.0089    2.6399   50.8244 C.2     1  ZINC000504860563    0.0600
     23 N23        -4.6346    1.4949   50.9231 N.2     1  ZINC000504860563   -0.2800
     24 C24        -7.7234    1.1687   53.0394 C.3     1  ZINC000504860563   -0.1400
     25 C25        -8.6596    0.0655   53.5278 C.3     1  ZINC000504860563    0.1200
     26 H26       -12.7278   -0.7175   55.7850 H       1  ZINC000504860563    0.1700
     27 H27       -14.2063    0.9978   54.8165 H       1  ZINC000504860563    0.1500
     28 H28       -13.8298    1.7615   52.4866 H       1  ZINC000504860563    0.1500
     29 H29       -11.8699    2.4034   49.5798 H       1  ZINC000504860563    0.1000
     30 H30       -12.9459    2.6203   50.9810 H       1  ZINC000504860563    0.1000
     31 H31        -9.8944    2.6252   51.0362 H       1  ZINC000504860563    0.1300
     32 H32        -7.2755   -2.1148   52.3257 H       1  ZINC000504860563    0.0700
     33 H33        -8.2042   -1.9848   50.8099 H       1  ZINC000504860563    0.1600
     34 H34        -6.0126   -0.7426   50.7355 H       1  ZINC000504860563    0.0900
     35 H35        -7.4237    0.3126   50.4787 H       1  ZINC000504860563    0.0700
     36 H36        -5.9798   -0.0928   53.1376 H       1  ZINC000504860563    0.1100
     37 H37        -6.0616    3.2254   53.3066 H       1  ZINC000504860563    0.1800
     38 H38        -3.2311    2.8772   50.1137 H       1  ZINC000504860563    0.1900
     39 H39        -7.4236    1.7926   53.8814 H       1  ZINC000504860563    0.0900
     40 H40        -8.2403    1.7796   52.2993 H       1  ZINC000504860563    0.0800
     41 H41        -9.5874    0.5076   53.8908 H       1  ZINC000504860563    0.1000
     42 H42        -8.1792   -0.4922   54.3319 H       1  ZINC000504860563    0.0800
@<TRIPOS>BOND
     1     1     2    2
     2     2     3    1
     3     2    14   am
     4     3     8   ar
     5     3     4   ar
     6     4     5   ar
     7     5     6   ar
     8     5    26    1
     9     6     7   ar
    10     6    27    1
    11     7     8   ar
    12     7    28    1
    13     8     9    1
    14     9    10    1
    15    10    11    1
    16    10    29    1
    17    10    30    1
    18    11    12    1
    19    11    13    1
    20    11    31    1
    21    14    25    1
    22    14    15    1
    23    15    16    1
    24    15    32    1
    25    15    33    1
    26    16    17    1
    27    16    34    1
    28    16    35    1
    29    17    18    1
    30    17    24    1
    31    17    36    1
    32    18    23    1
    33    18    19    1
    34    19    20    2
    35    19    37    1
    36    20    21    1
    37    20    22    1
    38    22    23    2
    39    22    38    1
    40    24    25    1
    41    24    39    1
    42    24    40    1
    43    25    41    1
    44    25    42    1
@<TRIPOS>SUBSTRUCTURE
     1 ZINC000504860563        1 TEMP              0 ****  ****    0 ROOT


##########                                Name:    ZINC001091652821
##########                DOCK_Rotatable_Bonds:                   4
##########                         Heavy_Atoms:                  24
##########                    Molecular_Weight:             345.465
##########                DOCK_Rotatable_Bonds:                   4
##########                       Formal_Charge:          -0.0199997
##########                     HBond_Acceptors:                   6
##########                        HBond_Donors:                   0
##########                         Heavy_Atoms:                  24
##########                          Grid_Score:          -27.244555
##########                     Grid_vdw_energy:          -27.101454
##########                      Grid_es_energy:           -0.143100
##########           Internal_energy_repulsive:            3.757169

@<TRIPOS>MOLECULE
ZINC001091652821
 47 50 1 0 0
SMALL
USER_CHARGES


@<TRIPOS>ATOM
      1 C1         -5.7180    0.8953   51.4418 C.3     1  ZINC001091652821   -0.1000
      2 C2         -4.5209    1.7349   51.0770 C.2     1  ZINC001091652821   -0.1200
      3 C3         -3.9375    2.5692   51.9454 C.2     1  ZINC001091652821   -0.2400
      4 S4         -2.6133    3.3699   51.2269 S.3     1  ZINC001091652821    0.2100
      5 C5         -2.8741    2.5348   49.7017 C.2     1  ZINC001091652821   -0.2700
      6 C6         -2.0684    2.7070   48.4893 C.2     1  ZINC001091652821    0.6100
      7 O7         -2.1586    3.7319   47.8391 O.2     1  ZINC001091652821   -0.5200
      8 N8         -1.2279    1.7302   48.0945 N.am    1  ZINC001091652821   -0.6200
      9 C9         -0.3504    1.7488   46.9128 C.3     1  ZINC001091652821    0.0900
     10 C10         0.8889    0.9157   47.2790 C.3     1  ZINC001091652821   -0.0900
     11 H11         1.2333    0.3060   46.4436 H       1  ZINC001091652821    0.1100
     12 C12         1.9932    1.8576   47.8027 C.3     1  ZINC001091652821    0.0400
     13 N13         2.5457    1.1645   48.9944 N.3     1  ZINC001091652821   -0.5000
     14 C14         3.2391    2.1101   49.8791 C.3     1  ZINC001091652821    0.1200
     15 C15         3.8265    1.3646   51.0496 C.2     1  ZINC001091652821    0.0000
     16 C16         3.8955    1.8057   52.3166 C.2     1  ZINC001091652821   -0.0800
     17 O17         4.4892    0.8376   53.0418 O.3     1  ZINC001091652821   -0.2000
     18 C18         4.7738   -0.1765   52.2140 C.2     1  ZINC001091652821    0.1900
     19 C19         5.4434   -1.4683   52.6065 C.3     1  ZINC001091652821   -0.0600
     20 N20         4.3708    0.1354   51.0153 N.2     1  ZINC001091652821   -0.4700
     21 C21         1.3534    0.5851   49.6645 C.3     1  ZINC001091652821    0.0400
     22 C22         0.4572    0.0535   48.4932 C.3     1  ZINC001091652821   -0.0700
     23 C23         0.6402   -1.4484   48.2660 C.3     1  ZINC001091652821   -0.1300
     24 C24        -1.0034    0.4388   48.7645 C.3     1  ZINC001091652821    0.1200
     25 C25        -3.9448    1.6953   49.8294 C.2     1  ZINC001091652821   -0.0500
     26 H26        -5.3825   -0.0615   51.8419 H       1  ZINC001091652821    0.0700
     27 H27        -6.3112    1.4157   52.1938 H       1  ZINC001091652821    0.0700
     28 H28        -6.3263    0.7245   50.5536 H       1  ZINC001091652821    0.0700
     29 H29        -4.2619    2.7164   52.9651 H       1  ZINC001091652821    0.1700
     30 H30        -0.8621    1.3030   46.0598 H       1  ZINC001091652821    0.0800
     31 H31        -0.0575    2.7727   46.6806 H       1  ZINC001091652821    0.0800
     32 H32         2.7681    1.9912   47.0478 H       1  ZINC001091652821    0.0800
     33 H33         1.5682    2.8204   48.0864 H       1  ZINC001091652821    0.0500
     34 H34         4.0373    2.6060   49.3267 H       1  ZINC001091652821    0.0500
     35 H35         2.5307    2.8552   50.2413 H       1  ZINC001091652821    0.1000
     36 H36         3.5417    2.7575   52.6846 H       1  ZINC001091652821    0.2100
     37 H37         5.6638   -1.4537   53.6740 H       1  ZINC001091652821    0.0900
     38 H38         4.7798   -2.3038   52.3840 H       1  ZINC001091652821    0.1000
     39 H39         6.3712   -1.5818   52.0455 H       1  ZINC001091652821    0.1000
     40 H40         1.6460   -0.2406   50.3131 H       1  ZINC001091652821    0.0900
     41 H41         0.8293    1.3510   50.2362 H       1  ZINC001091652821    0.0500
     42 H42         0.3525   -1.9898   49.1672 H       1  ZINC001091652821    0.0600
     43 H43         0.0134   -1.7689   47.4339 H       1  ZINC001091652821    0.0600
     44 H44         1.6850   -1.6563   48.0352 H       1  ZINC001091652821    0.0700
     45 H45        -1.1659    0.5586   49.8357 H       1  ZINC001091652821    0.0900
     46 H46        -1.6717   -0.3253   48.3675 H       1  ZINC001091652821    0.0800
     47 H47        -4.3071    1.0689   49.0278 H       1  ZINC001091652821    0.1500
@<TRIPOS>BOND
     1     1     2    1
     2     1    26    1
     3     1    27    1
     4     1    28    1
     5     2    25    1
     6     2     3    2
     7     3     4    1
     8     3    29    1
     9     4     5    1
    10     5     6    1
    11     5    25    2
    12     6     7    2
    13     6     8   am
    14     8    24    1
    15     8     9    1
    16     9    10    1
    17     9    30    1
    18     9    31    1
    19    10    11    1
    20    10    22    1
    21    10    12    1
    22    12    13    1
    23    12    32    1
    24    12    33    1
    25    13    14    1
    26    13    21    1
    27    14    15    1
    28    14    34    1
    29    14    35    1
    30    15    20    1
    31    15    16    2
    32    16    17    1
    33    16    36    1
    34    17    18    1
    35    18    19    1
    36    18    20    2
    37    19    37    1
    38    19    38    1
    39    19    39    1
    40    21    22    1
    41    21    40    1
    42    21    41    1
    43    22    23    1
    44    22    24    1
    45    23    42    1
    46    23    43    1
    47    23    44    1
    48    24    45    1
    49    24    46    1
    50    25    47    1
@<TRIPOS>SUBSTRUCTURE
     1 ZINC001091652821        1 TEMP              0 ****  ****    0 ROOT


##########                                Name:    ZINC000437443367
##########                DOCK_Rotatable_Bonds:                   8
##########                         Heavy_Atoms:                  24
##########                    Molecular_Weight:             334.434
##########                DOCK_Rotatable_Bonds:                   8
##########                       Formal_Charge:          -0.0500003
##########                     HBond_Acceptors:                   5
##########                        HBond_Donors:                   1
##########                         Heavy_Atoms:                  24
##########                          Grid_Score:          -27.207556
##########                     Grid_vdw_energy:          -27.021400
##########                      Grid_es_energy:           -0.186156
##########           Internal_energy_repulsive:           29.418011

@<TRIPOS>MOLECULE
ZINC000437443367
 51 52 1 0 0
SMALL
USER_CHARGES


@<TRIPOS>ATOM
      1 C1         -7.8410   -0.6580   67.4131 C.3     1  ZINC000437443367   -0.1200
      2 C2         -7.8358    0.0544   66.0852 C.ar    1  ZINC000437443367   -0.1000
      3 C3         -8.0573   -0.6543   64.9213 C.ar    1  ZINC000437443367   -0.1200
      4 C4         -8.0524    0.0031   63.6972 C.ar    1  ZINC000437443367    0.1400
      5 N5         -8.2769   -0.7125   62.5173 N.am    1  ZINC000437443367   -0.6400
      6 C6         -9.5110   -0.7508   61.9770 C.2     1  ZINC000437443367    0.5000
      7 O7        -10.4275   -0.1640   62.5145 O.2     1  ZINC000437443367   -0.4800
      8 C8         -9.7509   -1.5152   60.7165 C.2     1  ZINC000437443367    0.5100
      9 O9        -10.0321   -2.6947   60.7663 O.2     1  ZINC000437443367   -0.5200
     10 N10        -9.6550   -0.8950   59.5237 N.am    1  ZINC000437443367   -0.5700
     11 C11        -9.8902   -1.6446   58.2872 C.3     1  ZINC000437443367    0.0900
     12 C12       -11.3172   -2.1969   58.2893 C.3     1  ZINC000437443367   -0.1200
     13 C13       -11.7357   -2.5335   56.8567 C.3     1  ZINC000437443367   -0.0900
     14 C14       -12.0936   -1.2448   56.1137 C.3     1  ZINC000437443367   -0.1400
     15 C15       -10.5794   -3.2321   56.1384 C.3     1  ZINC000437443367   -0.1500
     16 C16        -9.3155    0.5289   59.4638 C.3     1  ZINC000437443367    0.1300
     17 C17        -7.9118    0.7120   58.8506 C.3     1  ZINC000437443367   -0.1300
     18 C18        -8.1855    0.9916   57.3519 C.3     1  ZINC000437443367   -0.1300
     19 C19        -9.4587    1.8726   57.3955 C.3     1  ZINC000437443367   -0.1200
     20 C20       -10.2991    1.2668   58.5385 C.3     1  ZINC000437443367   -0.1400
     21 C21        -7.8245    1.3723   63.6476 C.ar    1  ZINC000437443367   -0.1100
     22 C22        -7.6033    2.0772   64.8145 C.ar    1  ZINC000437443367   -0.1300
     23 C23        -7.6143    1.4208   66.0338 C.ar    1  ZINC000437443367    0.0800
     24 F24        -7.3978    2.1123   67.1740 F       1  ZINC000437443367   -0.1400
     25 H25        -8.8527   -0.6628   67.8189 H       1  ZINC000437443367    0.0800
     26 H26        -7.4997   -1.6840   67.2763 H       1  ZINC000437443367    0.0700
     27 H27        -7.1747   -0.1425   68.1047 H       1  ZINC000437443367    0.0700
     28 H28        -8.2340   -1.7190   64.9621 H       1  ZINC000437443367    0.1400
     29 H29        -7.5445   -1.1813   62.0876 H       1  ZINC000437443367    0.4200
     30 H30        -9.7577   -0.9837   57.4308 H       1  ZINC000437443367    0.0900
     31 H31        -9.1813   -2.4701   58.2224 H       1  ZINC000437443367    0.1000
     32 H32       -11.3570   -3.0983   58.9008 H       1  ZINC000437443367    0.0700
     33 H33       -11.9955   -1.4490   58.6998 H       1  ZINC000437443367    0.0600
     34 H34       -12.6028   -3.1939   56.8772 H       1  ZINC000437443367    0.0600
     35 H35       -11.2266   -0.5846   56.0933 H       1  ZINC000437443367    0.0600
     36 H36       -12.3918   -1.4847   55.0932 H       1  ZINC000437443367    0.0400
     37 H37       -12.9174   -0.7472   56.6255 H       1  ZINC000437443367    0.0600
     38 H38       -10.3245   -4.1502   56.6677 H       1  ZINC000437443367    0.0500
     39 H39       -10.8776   -3.4720   55.1178 H       1  ZINC000437443367    0.0500
     40 H40        -9.7125   -2.5719   56.1179 H       1  ZINC000437443367    0.0500
     41 H41        -9.3465    0.9623   60.4635 H       1  ZINC000437443367    0.1000
     42 H42        -7.4026    1.5593   59.3098 H       1  ZINC000437443367    0.0800
     43 H43        -7.3228   -0.1976   58.9676 H       1  ZINC000437443367    0.0700
     44 H44        -7.3547    1.5354   56.9024 H       1  ZINC000437443367    0.0700
     45 H45        -8.3767    0.0628   56.8144 H       1  ZINC000437443367    0.0700
     46 H46        -9.1992    2.9072   57.6198 H       1  ZINC000437443367    0.0700
     47 H47        -9.9985    1.8099   56.4506 H       1  ZINC000437443367    0.0700
     48 H48       -11.0290    0.5655   58.1342 H       1  ZINC000437443367    0.0800
     49 H49       -10.8068    2.0588   59.0890 H       1  ZINC000437443367    0.0700
     50 H50        -7.8199    1.8853   62.6973 H       1  ZINC000437443367    0.1600
     51 H51        -7.4261    3.1419   64.7765 H       1  ZINC000437443367    0.1400
@<TRIPOS>BOND
     1     1     2    1
     2     1    25    1
     3     1    26    1
     4     1    27    1
     5     2    23   ar
     6     2     3   ar
     7     3     4   ar
     8     3    28    1
     9     4     5    1
    10     4    21   ar
    11     5     6   am
    12     5    29    1
    13     6     7    2
    14     6     8    1
    15     8     9    2
    16     8    10   am
    17    10    11    1
    18    10    16    1
    19    11    12    1
    20    11    30    1
    21    11    31    1
    22    12    13    1
    23    12    32    1
    24    12    33    1
    25    13    14    1
    26    13    15    1
    27    13    34    1
    28    14    35    1
    29    14    36    1
    30    14    37    1
    31    15    38    1
    32    15    39    1
    33    15    40    1
    34    16    20    1
    35    16    17    1
    36    16    41    1
    37    17    18    1
    38    17    42    1
    39    17    43    1
    40    18    19    1
    41    18    44    1
    42    18    45    1
    43    19    20    1
    44    19    46    1
    45    19    47    1
    46    20    48    1
    47    20    49    1
    48    21    22   ar
    49    21    50    1
    50    22    23   ar
    51    22    51    1
    52    23    24    1
@<TRIPOS>SUBSTRUCTURE
     1 ZINC000437443367        1 TEMP              0 ****  ****    0 ROOT


##########                                Name:    ZINC001065334255
##########                DOCK_Rotatable_Bonds:                   7
##########                         Heavy_Atoms:                  23
##########                    Molecular_Weight:             346.448
##########                DOCK_Rotatable_Bonds:                   7
##########                       Formal_Charge:        -5.81145e-07
##########                     HBond_Acceptors:                   8
##########                        HBond_Donors:                   1
##########                         Heavy_Atoms:                  23
##########                          Grid_Score:          -27.180059
##########                     Grid_vdw_energy:          -27.169043
##########                      Grid_es_energy:           -0.011016
##########           Internal_energy_repulsive:           19.000916

@<TRIPOS>MOLECULE
ZINC001065334255
 49 50 1 0 0
SMALL
USER_CHARGES


@<TRIPOS>ATOM
      1 C1         -8.3926    0.4191   51.8717 C.3     1  ZINC001065334255   -0.1500
      2 C2         -7.0995   -0.3130   52.2361 C.3     1  ZINC001065334255   -0.0800
      3 C3         -7.2758   -1.8128   51.9898 C.3     1  ZINC001065334255   -0.1500
      4 C4         -5.9534    0.2145   51.3705 C.3     1  ZINC001065334255   -0.1400
      5 C5         -5.3966    1.4722   51.9863 C.2     1  ZINC001065334255    0.5100
      6 O6         -6.0290    2.0625   52.8364 O.2     1  ZINC001065334255   -0.5300
      7 N7         -4.1960    1.9411   51.5924 N.am    1  ZINC001065334255   -0.7300
      8 C8         -3.6540    3.1628   52.1923 C.3     1  ZINC001065334255    0.1300
      9 C9         -2.1273    3.1455   52.0934 C.3     1  ZINC001065334255    0.0700
     10 H10        -1.7339    2.3145   52.6789 H       1  ZINC001065334255    0.0700
     11 C11        -1.7110    2.9811   50.6273 C.3     1  ZINC001065334255    0.0800
     12 N12        -0.2526    3.1551   50.5366 N.am    1  ZINC001065334255   -0.6100
     13 C13         0.5156    2.2502   49.8983 C.2     1  ZINC001065334255    0.5400
     14 O14         1.7159    2.4116   49.8338 O.2     1  ZINC001065334255   -0.5200
     15 C15        -0.1168    1.0380   49.2646 C.3     1  ZINC001065334255   -0.1100
     16 H16        -0.7750    0.5440   49.9794 H       1  ZINC001065334255    0.1200
     17 C17         0.9740    0.0616   48.7906 C.3     1  ZINC001065334255   -0.1000
     18 C18         0.3304   -0.9839   47.8582 C.3     1  ZINC001065334255   -0.5900
     19 S19        -1.1044   -0.1332   47.1075 S.o2    1  ZINC001065334255    2.3900
     20 O20        -0.8572    0.0754   45.7238 O.2     1  ZINC001065334255   -0.9300
     21 O21        -2.3025   -0.7739   47.5237 O.2     1  ZINC001065334255   -0.9300
     22 C22        -0.9184    1.4548   48.0046 C.3     1  ZINC001065334255   -0.5900
     23 C23         0.3421    4.3464   51.1630 C.3     1  ZINC001065334255    0.0600
     24 C24        -0.1742    4.4443   52.6030 C.3     1  ZINC001065334255    0.0500
     25 O25        -1.6021    4.3758   52.5978 O.3     1  ZINC001065334255   -0.3700
     26 H26        -9.2091    0.0432   52.4883 H       1  ZINC001065334255    0.0600
     27 H27        -8.2670    1.4876   52.0472 H       1  ZINC001065334255    0.0500
     28 H28        -8.6230    0.2481   50.8201 H       1  ZINC001065334255    0.0600
     29 H29        -6.8691   -0.1422   53.2876 H       1  ZINC001065334255    0.0800
     30 H30        -7.5062   -1.9837   50.9382 H       1  ZINC001065334255    0.0500
     31 H31        -6.3546   -2.3343   52.2494 H       1  ZINC001065334255    0.0700
     32 H32        -8.0923   -2.1886   52.6064 H       1  ZINC001065334255    0.0500
     33 H33        -5.1678   -0.5386   51.3093 H       1  ZINC001065334255    0.0900
     34 H34        -6.3252    0.4338   50.3697 H       1  ZINC001065334255    0.0900
     35 H35        -3.6908    1.4696   50.9116 H       1  ZINC001065334255    0.4000
     36 H36        -4.0427    4.0317   51.6613 H       1  ZINC001065334255    0.0900
     37 H37        -3.9497    3.2151   53.2401 H       1  ZINC001065334255    0.0800
     38 H38        -1.9845    1.9857   50.2773 H       1  ZINC001065334255    0.1100
     39 H39        -2.2093    3.7349   50.0176 H       1  ZINC001065334255    0.0900
     40 H40         1.7460    0.6090   48.2498 H       1  ZINC001065334255    0.1000
     41 H41         1.4173   -0.4387   49.6516 H       1  ZINC001065334255    0.1000
     42 H42         1.0368   -1.2880   47.0858 H       1  ZINC001065334255    0.1500
     43 H43        -0.0005   -1.8498   48.4316 H       1  ZINC001065334255    0.1400
     44 H44        -1.8922    1.8595   48.2807 H       1  ZINC001065334255    0.1400
     45 H45        -0.3550    2.1724   47.4083 H       1  ZINC001065334255    0.1500
     46 H46         1.4283    4.2551   51.1677 H       1  ZINC001065334255    0.1000
     47 H47         0.0506    5.2376   50.6071 H       1  ZINC001065334255    0.0900
     48 H48         0.2270    3.6184   53.1905 H       1  ZINC001065334255    0.0600
     49 H49         0.1433    5.3910   53.0401 H       1  ZINC001065334255    0.1100
@<TRIPOS>BOND
     1     1     2    1
     2     1    26    1
     3     1    27    1
     4     1    28    1
     5     2     3    1
     6     2     4    1
     7     2    29    1
     8     3    30    1
     9     3    31    1
    10     3    32    1
    11     4     5    1
    12     4    33    1
    13     4    34    1
    14     5     6    2
    15     5     7   am
    16     7     8    1
    17     7    35    1
    18     8     9    1
    19     8    36    1
    20     8    37    1
    21     9    10    1
    22     9    25    1
    23     9    11    1
    24    11    12    1
    25    11    38    1
    26    11    39    1
    27    12    13   am
    28    12    23    1
    29    13    14    2
    30    13    15    1
    31    15    16    1
    32    15    22    1
    33    15    17    1
    34    17    18    1
    35    17    40    1
    36    17    41    1
    37    18    19    1
    38    18    42    1
    39    18    43    1
    40    19    20    2
    41    19    21    2
    42    19    22    1
    43    22    44    1
    44    22    45    1
    45    23    24    1
    46    23    46    1
    47    23    47    1
    48    24    25    1
    49    24    48    1
    50    24    49    1
@<TRIPOS>SUBSTRUCTURE
     1 ZINC001065334255        1 TEMP              0 ****  ****    0 ROOT


##########                                Name:    ZINC000252489163
##########                DOCK_Rotatable_Bonds:                   6
##########                         Heavy_Atoms:                  25
##########                    Molecular_Weight:             379.403
##########                DOCK_Rotatable_Bonds:                   6
##########                       Formal_Charge:          0.00999963
##########                     HBond_Acceptors:                  10
##########                        HBond_Donors:                   2
##########                         Heavy_Atoms:                  25
##########                          Grid_Score:          -27.166250
##########                     Grid_vdw_energy:          -26.375881
##########                      Grid_es_energy:           -0.790368
##########           Internal_energy_repulsive:           34.882149

@<TRIPOS>MOLECULE
ZINC000252489163
 45 46 1 0 0
SMALL
USER_CHARGES


@<TRIPOS>ATOM
      1 C1         -2.2011    0.8564   44.8819 C.3     1  ZINC000252489163   -0.1100
      2 C2         -1.8246    0.9299   46.3393 C.ar    1  ZINC000252489163   -0.0600
      3 C3         -2.4738    1.8166   47.1755 C.ar    1  ZINC000252489163   -0.1300
      4 C4         -2.1266    1.8834   48.5186 C.ar    1  ZINC000252489163    0.1700
      5 N5         -2.7829    2.7806   49.3688 N.am    1  ZINC000252489163   -0.6800
      6 C6         -3.6254    2.3194   50.3144 C.2     1  ZINC000252489163    0.7100
      7 O7         -3.8152    1.1238   50.4287 O.2     1  ZINC000252489163   -0.5500
      8 N8         -4.2575    3.1834   51.1332 N.am    1  ZINC000252489163   -0.6200
      9 C9         -4.0384    4.6308   51.0072 C.3     1  ZINC000252489163    0.1000
     10 C10        -3.6238    5.1874   52.3728 C.3     1  ZINC000252489163   -0.1400
     11 C11        -4.6728    4.7991   53.4173 C.3     1  ZINC000252489163   -0.1300
     12 C12        -4.7519    3.2743   53.5210 C.3     1  ZINC000252489163    0.1400
     13 H13        -3.7742    2.8771   53.7940 H       1  ZINC000252489163    0.0900
     14 N14        -5.7332    2.9038   54.5437 N.am    1  ZINC000252489163   -1.1100
     15 S15        -5.9983    3.9032   55.8374 S.o2    1  ZINC000252489163    2.6100
     16 C16        -4.3856    4.0160   56.6602 C.3     1  ZINC000252489163   -0.6700
     17 O17        -6.3474    5.1498   55.2514 O.2     1  ZINC000252489163   -0.9500
     18 O18        -6.9226    3.1900   56.6475 O.2     1  ZINC000252489163   -0.9500
     19 C19        -5.1835    2.6963   52.1645 C.3     1  ZINC000252489163    0.1100
     20 C20        -1.1272    1.0579   49.0162 C.ar    1  ZINC000252489163   -0.1000
     21 C21        -0.4815    0.1731   48.1745 C.ar    1  ZINC000252489163   -0.1600
     22 C22         0.6033   -0.7233   48.7137 C.3     1  ZINC000252489163    0.5100
     23 F23         0.4252   -0.8946   50.0906 F       1  ZINC000252489163   -0.1700
     24 F24         0.5396   -1.9674   48.0769 F       1  ZINC000252489163   -0.1800
     25 F25         1.8522   -0.1401   48.4739 F       1  ZINC000252489163   -0.1800
     26 C26        -0.8332    0.1052   46.8391 C.ar    1  ZINC000252489163   -0.0900
     27 H27        -2.9968    0.1235   44.7488 H       1  ZINC000252489163    0.0800
     28 H28        -2.5476    1.8339   44.5465 H       1  ZINC000252489163    0.0700
     29 H29        -1.3311    0.5587   44.2965 H       1  ZINC000252489163    0.0700
     30 H30        -3.2505    2.4576   46.7855 H       1  ZINC000252489163    0.1300
     31 H31        -2.6316    3.7343   49.2776 H       1  ZINC000252489163    0.4100
     32 H32        -3.2478    4.8188   50.2807 H       1  ZINC000252489163    0.0800
     33 H33        -4.9599    5.1128   50.6805 H       1  ZINC000252489163    0.0800
     34 H34        -2.6569    4.7722   52.6566 H       1  ZINC000252489163    0.0700
     35 H35        -3.5515    6.2735   52.3163 H       1  ZINC000252489163    0.0900
     36 H36        -4.3929    5.2149   54.3852 H       1  ZINC000252489163    0.0800
     37 H37        -5.6446    5.1937   53.1201 H       1  ZINC000252489163    0.0800
     38 H38        -6.2277    2.0733   54.4631 H       1  ZINC000252489163    0.4200
     39 H39        -3.6530    4.4315   55.9683 H       1  ZINC000252489163    0.1300
     40 H40        -4.4679    4.6625   57.5338 H       1  ZINC000252489163    0.1300
     41 H41        -4.0668    3.0216   56.9728 H       1  ZINC000252489163    0.1300
     42 H42        -6.1983    3.0213   51.9352 H       1  ZINC000252489163    0.0800
     43 H43        -5.1461    1.6076   52.2027 H       1  ZINC000252489163    0.1100
     44 H44        -0.8547    1.1078   50.0600 H       1  ZINC000252489163    0.1800
     45 H45        -0.3272   -0.5877   46.1832 H       1  ZINC000252489163    0.1300
@<TRIPOS>BOND
     1     1     2    1
     2     1    27    1
     3     1    28    1
     4     1    29    1
     5     2    26   ar
     6     2     3   ar
     7     3     4   ar
     8     3    30    1
     9     4     5    1
    10     4    20   ar
    11     5     6   am
    12     5    31    1
    13     6     7    2
    14     6     8   am
    15     8    19    1
    16     8     9    1
    17     9    10    1
    18     9    32    1
    19     9    33    1
    20    10    11    1
    21    10    34    1
    22    10    35    1
    23    11    12    1
    24    11    36    1
    25    11    37    1
    26    12    13    1
    27    12    14    1
    28    12    19    1
    29    14    15   am
    30    14    38    1
    31    15    16    1
    32    15    17    2
    33    15    18    2
    34    16    39    1
    35    16    40    1
    36    16    41    1
    37    19    42    1
    38    19    43    1
    39    20    21   ar
    40    20    44    1
    41    21    22    1
    42    21    26   ar
    43    22    23    1
    44    22    24    1
    45    22    25    1
    46    26    45    1
@<TRIPOS>SUBSTRUCTURE
     1 ZINC000252489163        1 TEMP              0 ****  ****    0 ROOT


##########                                Name:    ZINC000463474628
##########                DOCK_Rotatable_Bonds:                   5
##########                         Heavy_Atoms:                  25
##########                    Molecular_Weight:              407.35
##########                DOCK_Rotatable_Bonds:                   5
##########                       Formal_Charge:           0.0200004
##########                     HBond_Acceptors:                   4
##########                        HBond_Donors:                   0
##########                         Heavy_Atoms:                  25
##########                          Grid_Score:          -27.156076
##########                     Grid_vdw_energy:          -26.946043
##########                      Grid_es_energy:           -0.210033
##########           Internal_energy_repulsive:           19.532555

@<TRIPOS>MOLECULE
ZINC000463474628
 52 54 1 0 0
SMALL
USER_CHARGES


@<TRIPOS>ATOM
      1 C1         -8.1991    2.2137   55.0583 C.3     1  ZINC000463474628   -0.1400
      2 C2         -6.8980    1.9738   54.2899 C.3     1  ZINC000463474628   -0.1300
      3 C3         -7.2231    1.5581   52.8538 C.3     1  ZINC000463474628    0.1400
      4 H4         -7.8713    2.3019   52.3905 H       1  ZINC000463474628    0.0800
      5 C5         -7.9190    0.1807   52.8510 C.3     1  ZINC000463474628   -0.1300
      6 C6         -7.3141   -0.5116   51.6011 C.3     1  ZINC000463474628   -0.1300
      7 C7         -5.8611    0.0252   51.6208 C.3     1  ZINC000463474628    0.0900
      8 N8         -5.9810    1.4248   52.0785 N.am    1  ZINC000463474628   -0.6100
      9 C9         -5.0980    2.4116   51.8279 C.2     1  ZINC000463474628    0.5300
     10 O10        -5.2991    3.5285   52.2557 O.2     1  ZINC000463474628   -0.5100
     11 C11        -3.8605    2.1271   51.0161 C.3     1  ZINC000463474628   -0.1200
     12 H12        -3.7137    1.0496   50.9420 H       1  ZINC000463474628    0.1000
     13 C13        -2.6459    2.7624   51.6968 C.3     1  ZINC000463474628   -0.1000
     14 C14        -1.3840    2.4463   50.8907 C.3     1  ZINC000463474628   -0.1300
     15 C15        -1.5176    3.0425   49.4858 C.3     1  ZINC000463474628    0.0900
     16 N16        -2.7610    2.5483   48.8788 N.am    1  ZINC000463474628   -0.6000
     17 C17        -2.7449    1.9490   47.6716 C.2     1  ZINC000463474628    0.5700
     18 O18        -3.7804    1.5443   47.1802 O.2     1  ZINC000463474628   -0.5200
     19 C19        -1.4682    1.7839   46.9456 C.ar    1  ZINC000463474628   -0.1200
     20 C20        -0.9825    2.8143   46.1389 C.ar    1  ZINC000463474628   -0.0800
     21 C21         0.2095    2.6543   45.4637 C.ar    1  ZINC000463474628   -0.1000
     22 C22         0.9240    1.4745   45.5848 C.ar    1  ZINC000463474628   -0.0700
     23 Br23        2.5577    1.2634   44.6563 Br      1  ZINC000463474628   -0.0400
     24 C24         0.4472    0.4485   46.3837 C.ar    1  ZINC000463474628   -0.0900
     25 C25        -0.7403    0.5988   47.0682 C.ar    1  ZINC000463474628   -0.0300
     26 C26        -1.2577   -0.5186   47.9370 C.3     1  ZINC000463474628   -0.1300
     27 C27        -4.0226    2.7189   49.6125 C.3     1  ZINC000463474628    0.1200
     28 H28        -8.5607    3.2216   54.8548 H       1  ZINC000463474628    0.0700
     29 H29        -8.9478    1.4880   54.7406 H       1  ZINC000463474628    0.0600
     30 H30        -8.0157    2.1024   56.1270 H       1  ZINC000463474628    0.0300
     31 H31        -6.3087    2.8907   54.2782 H       1  ZINC000463474628    0.0600
     32 H32        -6.3289    1.1822   54.7773 H       1  ZINC000463474628    0.0700
     33 H33        -7.6757   -0.3762   53.7558 H       1  ZINC000463474628    0.0800
     34 H34        -8.9979    0.2938   52.7449 H       1  ZINC000463474628    0.0800
     35 H35        -7.3314   -1.5962   51.7084 H       1  ZINC000463474628    0.0900
     36 H36        -7.8327   -0.2022   50.6937 H       1  ZINC000463474628    0.0800
     37 H37        -5.2529   -0.5521   52.3169 H       1  ZINC000463474628    0.0700
     38 H38        -5.4303   -0.0096   50.6201 H       1  ZINC000463474628    0.0800
     39 H39        -2.7825    3.8425   51.7489 H       1  ZINC000463474628    0.0800
     40 H40        -2.5430    2.3606   52.7048 H       1  ZINC000463474628    0.0700
     41 H41        -0.5163    2.8793   51.3886 H       1  ZINC000463474628    0.0800
     42 H42        -1.2603    1.3659   50.8172 H       1  ZINC000463474628    0.0700
     43 H43        -1.5504    4.1299   49.5519 H       1  ZINC000463474628    0.0800
     44 H44        -0.6670    2.7368   48.8767 H       1  ZINC000463474628    0.1000
     45 H45        -1.5392    3.7349   46.0433 H       1  ZINC000463474628    0.1400
     46 H46         0.5862    3.4506   44.8390 H       1  ZINC000463474628    0.1400
     47 H47         1.0088   -0.4697   46.4740 H       1  ZINC000463474628    0.1400
     48 H48        -0.9486   -0.3498   48.9685 H       1  ZINC000463474628    0.0700
     49 H49        -2.3460   -0.5462   47.8837 H       1  ZINC000463474628    0.0900
     50 H50        -0.8526   -1.4682   47.5872 H       1  ZINC000463474628    0.0700
     51 H51        -4.8242    2.2001   49.0867 H       1  ZINC000463474628    0.1000
     52 H52        -4.2600    3.7800   49.6892 H       1  ZINC000463474628    0.0800
@<TRIPOS>BOND
     1     1     2    1
     2     1    28    1
     3     1    29    1
     4     1    30    1
     5     2     3    1
     6     2    31    1
     7     2    32    1
     8     3     4    1
     9     3     8    1
    10     3     5    1
    11     5     6    1
    12     5    33    1
    13     5    34    1
    14     6     7    1
    15     6    35    1
    16     6    36    1
    17     7     8    1
    18     7    37    1
    19     7    38    1
    20     8     9   am
    21     9    10    2
    22     9    11    1
    23    11    12    1
    24    11    27    1
    25    11    13    1
    26    13    14    1
    27    13    39    1
    28    13    40    1
    29    14    15    1
    30    14    41    1
    31    14    42    1
    32    15    16    1
    33    15    43    1
    34    15    44    1
    35    16    17   am
    36    16    27    1
    37    17    18    2
    38    17    19    1
    39    19    25   ar
    40    19    20   ar
    41    20    21   ar
    42    20    45    1
    43    21    22   ar
    44    21    46    1
    45    22    23    1
    46    22    24   ar
    47    24    25   ar
    48    24    47    1
    49    25    26    1
    50    26    48    1
    51    26    49    1
    52    26    50    1
    53    27    51    1
    54    27    52    1
@<TRIPOS>SUBSTRUCTURE
     1 ZINC000463474628        1 TEMP              0 ****  ****    0 ROOT


##########                                Name:    ZINC001490207225
##########                DOCK_Rotatable_Bonds:                   7
##########                         Heavy_Atoms:                  24
##########                    Molecular_Weight:             334.378
##########                DOCK_Rotatable_Bonds:                   7
##########                       Formal_Charge:           -0.010001
##########                     HBond_Acceptors:                   9
##########                        HBond_Donors:                   3
##########                         Heavy_Atoms:                  24
##########                          Grid_Score:          -27.125580
##########                     Grid_vdw_energy:          -26.632412
##########                      Grid_es_energy:           -0.493168
##########           Internal_energy_repulsive:            6.560775

@<TRIPOS>MOLECULE
ZINC001490207225
 46 48 1 0 0
SMALL
USER_CHARGES


@<TRIPOS>ATOM
      1 C1         -1.7575   -0.0778   42.9655 C.3     1  ZINC001490207225    0.0900
      2 N2         -1.0638    0.9619   43.7297 N.pl3   1  ZINC001490207225   -0.3600
      3 C3         -1.6491    1.8826   44.5121 C.2     1  ZINC001490207225    0.1300
      4 C4         -0.6473    2.6672   45.0474 C.2     1  ZINC001490207225   -0.3000
      5 C5         -0.8242    3.8055   45.9674 C.2     1  ZINC001490207225    0.6200
      6 O6         -0.3460    4.8893   45.6928 O.2     1  ZINC001490207225   -0.5400
      7 N7         -1.5160    3.6449   47.1129 N.am    1  ZINC001490207225   -0.6200
      8 C8         -1.7869    4.6751   48.1288 C.3     1  ZINC001490207225    0.1100
      9 C9         -1.8540    3.9451   49.4804 C.3     1  ZINC001490207225   -0.1100
     10 H10        -0.9480    4.0894   50.0692 H       1  ZINC001490207225    0.1000
     11 C11        -3.1176    4.4030   50.2388 C.3     1  ZINC001490207225    0.1000
     12 N12        -3.6981    3.1566   50.7895 N.am    1  ZINC001490207225   -0.6200
     13 C13        -4.2616    2.9712   51.9997 C.2     1  ZINC001490207225    0.5300
     14 O14        -4.6943    1.8805   52.3064 O.2     1  ZINC001490207225   -0.5300
     15 C15        -4.3539    4.1190   52.9718 C.3     1  ZINC001490207225    0.1200
     16 N16        -4.8846    3.6358   54.2490 N.am    1  ZINC001490207225   -0.7400
     17 C17        -4.0425    3.3270   55.2550 C.2     1  ZINC001490207225    0.7100
     18 N18        -4.5308    2.8840   56.4305 N.am    1  ZINC001490207225   -0.8600
     19 O19        -2.8424    3.4480   55.1021 O.2     1  ZINC001490207225   -0.5900
     20 C20        -3.5188    2.1603   49.7084 C.3     1  ZINC001490207225    0.1100
     21 C21        -2.0920    2.4538   49.1277 C.3     1  ZINC001490207225   -0.0800
     22 C22        -1.0311    1.5159   49.7073 C.3     1  ZINC001490207225   -0.1300
     23 C23        -2.1538    2.4067   47.5893 C.3     1  ZINC001490207225    0.1000
     24 C24         0.5795    2.1748   44.5487 C.2     1  ZINC001490207225    0.0700
     25 N25         0.3209    1.1590   43.7719 N.2     1  ZINC001490207225   -0.2900
     26 H26        -1.8633   -0.9713   43.5806 H       1  ZINC001490207225    0.0800
     27 H27        -2.7445    0.2823   42.6750 H       1  ZINC001490207225    0.0900
     28 H28        -1.1809   -0.3178   42.0722 H       1  ZINC001490207225    0.1000
     29 H29        -2.7090    1.9900   44.6900 H       1  ZINC001490207225    0.1900
     30 H30        -0.9820    5.4100   48.1402 H       1  ZINC001490207225    0.0900
     31 H31        -2.7383    5.1647   47.9206 H       1  ZINC001490207225    0.0800
     32 H32        -2.8500    5.0858   51.0452 H       1  ZINC001490207225    0.0900
     33 H33        -3.8198    4.8789   49.5543 H       1  ZINC001490207225    0.0900
     34 H34        -3.3622    4.5438   53.1277 H       1  ZINC001490207225    0.1000
     35 H35        -5.0176    4.8840   52.5687 H       1  ZINC001490207225    0.1000
     36 H36        -5.8419    3.5381   54.3706 H       1  ZINC001490207225    0.4100
     37 H37        -3.9247    2.6628   57.1549 H       1  ZINC001490207225    0.4000
     38 H38        -5.4880    2.7862   56.5521 H       1  ZINC001490207225    0.4200
     39 H39        -3.5543    1.1493   50.1139 H       1  ZINC001490207225    0.0900
     40 H40        -4.2829    2.2900   48.9419 H       1  ZINC001490207225    0.0800
     41 H41        -1.2796    0.4854   49.4535 H       1  ZINC001490207225    0.0700
     42 H42        -0.0562    1.7680   49.2902 H       1  ZINC001490207225    0.0600
     43 H43        -1.0020    1.6262   50.7913 H       1  ZINC001490207225    0.0600
     44 H44        -3.1917    2.3862   47.2571 H       1  ZINC001490207225    0.0800
     45 H45        -1.6252    1.5277   47.2205 H       1  ZINC001490207225    0.0900
     46 H46         1.5599    2.5676   44.7744 H       1  ZINC001490207225    0.2000
@<TRIPOS>BOND
     1     1     2    1
     2     1    26    1
     3     1    27    1
     4     1    28    1
     5     2    25    1
     6     2     3    1
     7     3     4    2
     8     3    29    1
     9     4     5    1
    10     4    24    1
    11     5     6    2
    12     5     7   am
    13     7    23    1
    14     7     8    1
    15     8     9    1
    16     8    30    1
    17     8    31    1
    18     9    10    1
    19     9    21    1
    20     9    11    1
    21    11    12    1
    22    11    32    1
    23    11    33    1
    24    12    13   am
    25    12    20    1
    26    13    14    2
    27    13    15    1
    28    15    16    1
    29    15    34    1
    30    15    35    1
    31    16    17   am
    32    16    36    1
    33    17    18   am
    34    17    19    2
    35    18    37    1
    36    18    38    1
    37    20    21    1
    38    20    39    1
    39    20    40    1
    40    21    22    1
    41    21    23    1
    42    22    41    1
    43    22    42    1
    44    22    43    1
    45    23    44    1
    46    23    45    1
    47    24    25    2
    48    24    46    1
@<TRIPOS>SUBSTRUCTURE
     1 ZINC001490207225        1 TEMP              0 ****  ****    0 ROOT


##########                                Name:    ZINC000274267583
##########                DOCK_Rotatable_Bonds:                   5
##########                         Heavy_Atoms:                  24
##########                    Molecular_Weight:             349.407
##########                DOCK_Rotatable_Bonds:                   5
##########                       Formal_Charge:           0.0300001
##########                     HBond_Acceptors:                   7
##########                        HBond_Donors:                   1
##########                         Heavy_Atoms:                  24
##########                          Grid_Score:          -27.117115
##########                     Grid_vdw_energy:          -26.164602
##########                      Grid_es_energy:           -0.952513
##########           Internal_energy_repulsive:           15.017465

@<TRIPOS>MOLECULE
ZINC000274267583
 43 45 1 0 0
SMALL
USER_CHARGES


@<TRIPOS>ATOM
      1 C1         -7.2512    0.6201   65.2027 C.3     1  ZINC000274267583    0.0200
      2 O2         -7.9448    1.4348   64.2556 O.3     1  ZINC000274267583   -0.3100
      3 C3         -8.2970    0.8505   63.0801 C.ar    1  ZINC000274267583    0.1900
      4 C4         -8.9556    1.5884   62.1073 C.ar    1  ZINC000274267583   -0.2300
      5 C5         -9.3122    0.9923   60.9132 C.ar    1  ZINC000274267583    0.0300
      6 C6         -9.0137   -0.3388   60.6874 C.ar    1  ZINC000274267583   -0.7200
      7 S7         -9.4704   -1.0963   59.1636 S.o2    1  ZINC000274267583    2.7000
      8 O8         -8.8938   -0.3054   58.1335 O.2     1  ZINC000274267583   -0.9500
      9 O9         -9.2127   -2.4857   59.3131 O.2     1  ZINC000274267583   -0.9500
     10 N10       -11.1118   -0.9390   59.0105 N.am    1  ZINC000274267583   -1.1100
     11 C11       -12.0009   -1.5237   60.0175 C.3     1  ZINC000274267583    0.2100
     12 H12       -11.4148   -2.1221   60.7150 H       1  ZINC000274267583    0.1000
     13 C13       -12.7123   -0.4036   60.7805 C.3     1  ZINC000274267583   -0.1800
     14 C14       -13.8405   -1.0277   61.6117 C.3     1  ZINC000274267583    0.0600
     15 O15       -14.8027   -1.5872   60.7169 O.3     1  ZINC000274267583   -0.3100
     16 C16       -14.3498   -2.3941   59.7209 C.ar    1  ZINC000274267583    0.1100
     17 C17       -15.2592   -3.2279   59.0789 C.ar    1  ZINC000274267583   -0.1100
     18 C18       -14.8420   -4.0591   58.0595 C.ar    1  ZINC000274267583   -0.1600
     19 C19       -13.5103   -4.0634   57.6724 C.ar    1  ZINC000274267583    0.0900
     20 O20       -13.0959   -4.8790   56.6664 O.3     1  ZINC000274267583   -0.3200
     21 C21       -14.1037   -5.6188   55.9741 C.3     1  ZINC000274267583    0.0300
     22 C22       -12.6028   -3.2347   58.3127 C.ar    1  ZINC000274267583   -0.1000
     23 C23       -13.0207   -2.4014   59.3373 C.ar    1  ZINC000274267583   -0.1400
     24 C24        -8.3570   -1.0762   61.6552 C.ar    1  ZINC000274267583    0.0200
     25 C25        -7.9936   -0.4833   62.8490 C.ar    1  ZINC000274267583   -0.1700
     26 H26        -7.8744   -0.2319   65.4744 H       1  ZINC000274267583    0.0600
     27 H27        -6.3201    0.2634   64.7623 H       1  ZINC000274267583    0.0600
     28 H28        -7.0299    1.2073   66.0940 H       1  ZINC000274267583    0.1100
     29 H29        -9.1896    2.6279   62.2835 H       1  ZINC000274267583    0.1400
     30 H30        -9.8249    1.5663   60.1556 H       1  ZINC000274267583    0.1400
     31 H31       -11.4847   -0.4598   58.2539 H       1  ZINC000274267583    0.4200
     32 H32       -12.0047    0.0987   61.4400 H       1  ZINC000274267583    0.1000
     33 H33       -13.1302    0.3140   60.0743 H       1  ZINC000274267583    0.0900
     34 H34       -13.4347   -1.8115   62.2514 H       1  ZINC000274267583    0.0700
     35 H35       -14.3123   -0.2602   62.2252 H       1  ZINC000274267583    0.1200
     36 H36       -16.2965   -3.2251   59.3799 H       1  ZINC000274267583    0.1400
     37 H37       -15.5513   -4.7055   57.5641 H       1  ZINC000274267583    0.1400
     38 H38       -14.6280   -6.2652   56.6780 H       1  ZINC000274267583    0.0600
     39 H39       -14.8127   -4.9279   55.5179 H       1  ZINC000274267583    0.0600
     40 H40       -13.6392   -6.2276   55.1984 H       1  ZINC000274267583    0.1000
     41 H41       -11.5658   -3.2383   58.0113 H       1  ZINC000274267583    0.1300
     42 H42        -8.1246   -2.1157   61.4764 H       1  ZINC000274267583    0.1500
     43 H43        -7.4807   -1.0597   63.6046 H       1  ZINC000274267583    0.1400
@<TRIPOS>BOND
     1     1     2    1
     2     1    26    1
     3     1    27    1
     4     1    28    1
     5     2     3    1
     6     3    25   ar
     7     3     4   ar
     8     4     5   ar
     9     4    29    1
    10     5     6   ar
    11     5    30    1
    12     6     7    1
    13     6    24   ar
    14     7     8    2
    15     7     9    2
    16     7    10   am
    17    10    11    1
    18    10    31    1
    19    11    12    1
    20    11    23    1
    21    11    13    1
    22    13    14    1
    23    13    32    1
    24    13    33    1
    25    14    15    1
    26    14    34    1
    27    14    35    1
    28    15    16    1
    29    16    23   ar
    30    16    17   ar
    31    17    18   ar
    32    17    36    1
    33    18    19   ar
    34    18    37    1
    35    19    20    1
    36    19    22   ar
    37    20    21    1
    38    21    38    1
    39    21    39    1
    40    21    40    1
    41    22    23   ar
    42    22    41    1
    43    24    25   ar
    44    24    42    1
    45    25    43    1
@<TRIPOS>SUBSTRUCTURE
     1 ZINC000274267583        1 TEMP              0 ****  ****    0 ROOT


##########                                Name:    ZINC000286156371
##########                DOCK_Rotatable_Bonds:                   7
##########                         Heavy_Atoms:                  25
##########                    Molecular_Weight:             350.418
##########                DOCK_Rotatable_Bonds:                   7
##########                       Formal_Charge:          0.00999908
##########                     HBond_Acceptors:                   8
##########                        HBond_Donors:                   2
##########                         Heavy_Atoms:                  25
##########                          Grid_Score:          -27.112448
##########                     Grid_vdw_energy:          -24.564787
##########                      Grid_es_energy:           -2.547661
##########           Internal_energy_repulsive:           21.875677

@<TRIPOS>MOLECULE
ZINC000286156371
 51 53 1 0 0
SMALL
USER_CHARGES


@<TRIPOS>ATOM
      1 C1         -8.4991    2.5302   58.3782 C.3     1  <0>        -0.1800
      2 C2         -8.0991    1.7972   57.0961 C.3     1  <0>         0.1400
      3 C3         -8.7199    2.5042   55.8896 C.3     1  <0>        -0.1800
      4 C4         -6.5751    1.8009   56.9610 C.3     1  <0>        -0.1400
      5 O5         -8.5767    0.4272   57.1528 O.3     1  <0>        -0.3600
      6 C6         -8.4284   -0.2239   58.3219 C.2     1  <0>         0.6800
      7 O7         -7.4480   -0.0207   59.0103 O.2     1  <0>        -0.5600
      8 N8         -9.3673   -1.1012   58.7285 N.am    1  <0>        -0.5800
      9 C9        -10.6001   -1.4417   57.9952 C.3     1  <0>         0.0700
     10 C10       -10.9868   -2.8531   58.5032 C.3     1  <0>         0.0900
     11 H11       -12.0561   -3.0301   58.3887 H       1  <0>         0.0900
     12 O12       -10.2286   -3.8634   57.8350 O.3     1  <0>        -0.5500
     13 C13       -10.5953   -2.7627   60.0019 C.3     1  <0>        -0.1200
     14 C14        -9.3284   -1.8820   59.9736 C.3     1  <0>         0.1500
     15 H15        -8.4389   -2.5115   59.9948 H       1  <0>         0.1100
     16 C16        -9.3253   -0.9506   61.1583 C.2     1  <0>         0.5200
     17 O17        -9.9651    0.0792   61.1218 O.2     1  <0>        -0.4900
     18 N18        -8.6115   -1.2619   62.2583 N.am    1  <0>        -0.6300
     19 C19        -8.6098   -0.3965   63.3608 C.2     1  <0>         0.3000
     20 N20        -9.6724    0.0975   63.9553 N.2     1  <0>        -0.3200
     21 N21        -9.2429    0.9102   65.0068 N.pl3   1  <0>        -0.3600
     22 C22       -10.0761    1.6663   65.9469 C.3     1  <0>         0.1400
     23 C23        -9.2261    2.0476   67.1634 C.3     1  <0>        -0.1400
     24 C24        -7.9247    2.7044   66.6940 C.3     1  <0>        -0.1300
     25 C25        -7.0417    1.6474   66.0177 C.3     1  <0>        -0.0600
     26 C26        -7.8899    0.8904   65.0255 C.2     1  <0>         0.0900
     27 C27        -7.4711    0.0893   64.0268 C.2     1  <0>        -0.2600
     28 H28        -9.5849    2.5277   58.4745 H       1  <0>         0.0900
     29 H29        -8.0569    2.0266   59.2377 H       1  <0>         0.0600
     30 H30        -8.1406    3.5587   58.3357 H       1  <0>         0.0700
     31 H31        -8.3614    3.5327   55.8471 H       1  <0>         0.0700
     32 H32        -8.4348    1.9821   54.9762 H       1  <0>         0.0600
     33 H33        -9.8056    2.5016   55.9859 H       1  <0>         0.0900
     34 H34        -6.1329    1.2972   57.8205 H       1  <0>         0.0700
     35 H35        -6.2902    1.2787   56.0476 H       1  <0>         0.0700
     36 H36        -6.2166    2.8294   56.9184 H       1  <0>         0.0800
     37 H37       -11.3890   -0.7259   58.2266 H       1  <0>         0.0800
     38 H38       -10.4095   -1.4638   56.9222 H       1  <0>         0.0900
     39 H39        -9.8073   -4.4977   58.4311 H       1  <0>         0.3900
     40 H40       -11.3877   -2.2866   60.5795 H       1  <0>         0.1000
     41 H41       -10.3664   -3.7510   60.4009 H       1  <0>         0.1100
     42 H42        -8.0988   -2.0849   62.2871 H       1  <0>         0.4200
     43 H43       -10.4461    2.5697   65.4620 H       1  <0>         0.0800
     44 H44       -10.9166    1.0506   66.2669 H       1  <0>         0.0900
     45 H45        -9.7807    2.7472   67.7889 H       1  <0>         0.0900
     46 H46        -8.9936    1.1518   67.7392 H       1  <0>         0.0800
     47 H47        -8.1531    3.4977   65.9823 H       1  <0>         0.0700
     48 H48        -7.3984    3.1238   67.5515 H       1  <0>         0.0800
     49 H49        -6.2161    2.1349   65.4993 H       1  <0>         0.0900
     50 H50        -6.6511    0.9598   66.7678 H       1  <0>         0.0900
     51 H51        -6.4443   -0.1373   63.7806 H       1  <0>         0.1700
@<TRIPOS>BOND
     1     1     2    1
     2     1    28    1
     3     1    29    1
     4     1    30    1
     5     2     3    1
     6     2     4    1
     7     2     5    1
     8     3    31    1
     9     3    32    1
    10     3    33    1
    11     4    34    1
    12     4    35    1
    13     4    36    1
    14     5     6    1
    15     6     7    2
    16     6     8   am
    17     8    14    1
    18     8     9    1
    19     9    10    1
    20     9    37    1
    21     9    38    1
    22    10    11    1
    23    10    12    1
    24    10    13    1
    25    12    39    1
    26    13    14    1
    27    13    40    1
    28    13    41    1
    29    14    15    1
    30    14    16    1
    31    16    17    2
    32    16    18   am
    33    18    19    1
    34    18    42    1
    35    19    27    1
    36    19    20    2
    37    20    21    1
    38    21    26    1
    39    21    22    1
    40    22    23    1
    41    22    43    1
    42    22    44    1
    43    23    24    1
    44    23    45    1
    45    23    46    1
    46    24    25    1
    47    24    47    1
    48    24    48    1
    49    25    26    1
    50    25    49    1
    51    25    50    1
    52    26    27    2
    53    27    51    1
@<TRIPOS>SUBSTRUCTURE
     1 <0>         1 TEMP              0 ****  ****    0 ROOT


##########                                Name:    ZINC000462219577
##########                DOCK_Rotatable_Bonds:                   8
##########                         Heavy_Atoms:                  31
##########                    Molecular_Weight:             418.539
##########                DOCK_Rotatable_Bonds:                   8
##########                       Formal_Charge:         -0.00999914
##########                     HBond_Acceptors:                   6
##########                        HBond_Donors:                   2
##########                         Heavy_Atoms:                  31
##########                          Grid_Score:          -27.105629
##########                     Grid_vdw_energy:          -25.470791
##########                      Grid_es_energy:           -1.634839
##########           Internal_energy_repulsive:          178.715363

@<TRIPOS>MOLECULE
ZINC000462219577
 61 64 1 0 0
SMALL
USER_CHARGES


@<TRIPOS>ATOM
      1 C1        -14.5137    1.8864   65.7659 C.3     1  ZINC000462219577   -0.0700
      2 C2        -15.0567    1.2934   64.4912 C.2     1  ZINC000462219577    0.0800
      3 N3        -15.7966    1.9165   63.6097 N.2     1  ZINC000462219577   -0.2900
      4 N4        -16.0918    1.0206   62.5740 N.pl3   1  ZINC000462219577   -0.3200
      5 C5        -16.8613    1.2997   61.4359 C.ar    1  ZINC000462219577    0.1500
      6 C6        -17.0798    0.3123   60.4847 C.ar    1  ZINC000462219577   -0.1100
      7 C7        -17.8384    0.5904   59.3645 C.ar    1  ZINC000462219577   -0.1000
      8 C8        -18.3797    1.8509   59.1897 C.ar    1  ZINC000462219577   -0.1200
      9 C9        -18.1633    2.8365   60.1351 C.ar    1  ZINC000462219577   -0.1000
     10 C10       -17.4111    2.5625   61.2606 C.ar    1  ZINC000462219577   -0.1300
     11 C11       -15.5025   -0.1609   62.8662 C.2     1  ZINC000462219577    0.0900
     12 C12       -15.5557   -1.4120   62.0277 C.3     1  ZINC000462219577   -0.0800
     13 C13       -14.8582   -1.1591   60.6895 C.3     1  ZINC000462219577    0.1700
     14 H14       -14.9658   -0.1094   60.4164 H       1  ZINC000462219577    0.1000
     15 C15       -15.4952   -2.0352   59.6089 C.3     1  ZINC000462219577   -0.1600
     16 N16       -13.4360   -1.4891   60.8101 N.am    1  ZINC000462219577   -0.7400
     17 C17       -12.5271   -0.5064   60.9671 C.2     1  ZINC000462219577    0.7100
     18 O18       -12.8878    0.6540   61.0100 O.2     1  ZINC000462219577   -0.5800
     19 N19       -11.2185   -0.8099   61.0764 N.am    1  ZINC000462219577   -0.7400
     20 C20       -10.2308    0.2582   61.2487 C.3     1  ZINC000462219577    0.1600
     21 H21       -10.6845    1.0913   61.7855 H       1  ZINC000462219577    0.1000
     22 C22        -9.0347   -0.2734   62.0445 C.3     1  ZINC000462219577   -0.1700
     23 C23        -8.3581   -1.3919   61.2475 C.3     1  ZINC000462219577    0.0700
     24 O24        -7.9592   -0.8907   59.9702 O.3     1  ZINC000462219577   -0.3700
     25 C25        -9.0418   -0.4234   59.1628 C.3     1  ZINC000462219577    0.1400
     26 H26        -9.7507   -1.2352   59.0000 H       1  ZINC000462219577    0.0600
     27 C27        -8.5098    0.0529   57.8356 C.ar    1  ZINC000462219577   -0.0900
     28 C28        -7.3820    0.8509   57.7892 C.ar    1  ZINC000462219577   -0.0900
     29 C29        -6.8940    1.2877   56.5719 C.ar    1  ZINC000462219577   -0.1200
     30 C30        -7.5337    0.9263   55.4009 C.ar    1  ZINC000462219577   -0.1200
     31 C31        -8.6610    0.1276   55.4473 C.ar    1  ZINC000462219577   -0.1200
     32 C32        -9.1464   -0.3128   56.6644 C.ar    1  ZINC000462219577   -0.1100
     33 C33        -9.7475    0.7356   59.8758 C.3     1  ZINC000462219577   -0.1500
     34 C34       -14.8514   -0.0162   64.0435 C.2     1  ZINC000462219577   -0.2600
     35 H35       -13.5385    2.3329   65.5723 H       1  ZINC000462219577    0.0800
     36 H36       -15.1982    2.6523   66.1306 H       1  ZINC000462219577    0.0700
     37 H37       -14.4120    1.1028   66.5166 H       1  ZINC000462219577    0.0800
     38 H38       -16.6569   -0.6721   60.6204 H       1  ZINC000462219577    0.1300
     39 H39       -18.0088   -0.1772   58.6242 H       1  ZINC000462219577    0.1300
     40 H40       -18.9721    2.0660   58.3127 H       1  ZINC000462219577    0.1300
     41 H41       -18.5866    3.8201   59.9955 H       1  ZINC000462219577    0.1300
     42 H42       -17.2426    3.3327   61.9988 H       1  ZINC000462219577    0.1300
     43 H43       -15.0513   -2.2231   62.5527 H       1  ZINC000462219577    0.0900
     44 H44       -16.5956   -1.6858   61.8493 H       1  ZINC000462219577    0.1100
     45 H45       -15.3877   -3.0849   59.8821 H       1  ZINC000462219577    0.0600
     46 H46       -16.5534   -1.7896   59.5191 H       1  ZINC000462219577    0.0700
     47 H47       -14.9983   -1.8550   58.6556 H       1  ZINC000462219577    0.0700
     48 H48       -13.1485   -2.4149   60.7771 H       1  ZINC000462219577    0.3900
     49 H49       -10.9308   -1.7356   61.0410 H       1  ZINC000462219577    0.3900
     50 H50        -8.3228    0.5342   62.2152 H       1  ZINC000462219577    0.0800
     51 H51        -9.3791   -0.6652   63.0016 H       1  ZINC000462219577    0.0800
     52 H52        -7.4809   -1.7450   61.7896 H       1  ZINC000462219577    0.1000
     53 H53        -9.0581   -2.2164   61.1121 H       1  ZINC000462219577    0.0500
     54 H54        -6.8822    1.1332   58.7040 H       1  ZINC000462219577    0.1300
     55 H55        -6.0132    1.9116   56.5356 H       1  ZINC000462219577    0.1200
     56 H56        -7.1528    1.2681   54.4499 H       1  ZINC000462219577    0.1200
     57 H57        -9.1609   -0.1544   54.5325 H       1  ZINC000462219577    0.1200
     58 H58       -10.0272   -0.9367   56.7006 H       1  ZINC000462219577    0.1200
     59 H59       -10.6002    1.0638   59.2815 H       1  ZINC000462219577    0.0800
     60 H60        -9.0503    1.5638   60.0027 H       1  ZINC000462219577    0.0900
     61 H61       -14.2801   -0.7792   64.5515 H       1  ZINC000462219577    0.1500
@<TRIPOS>BOND
     1     1     2    1
     2     1    35    1
     3     1    36    1
     4     1    37    1
     5     2    34    1
     6     2     3    2
     7     3     4    1
     8     4     5    1
     9     4    11    1
    10     5    10   ar
    11     5     6   ar
    12     6     7   ar
    13     6    38    1
    14     7     8   ar
    15     7    39    1
    16     8     9   ar
    17     8    40    1
    18     9    10   ar
    19     9    41    1
    20    10    42    1
    21    11    12    1
    22    11    34    2
    23    12    13    1
    24    12    43    1
    25    12    44    1
    26    13    14    1
    27    13    15    1
    28    13    16    1
    29    15    45    1
    30    15    46    1
    31    15    47    1
    32    16    17   am
    33    16    48    1
    34    17    18    2
    35    17    19   am
    36    19    20    1
    37    19    49    1
    38    20    21    1
    39    20    33    1
    40    20    22    1
    41    22    23    1
    42    22    50    1
    43    22    51    1
    44    23    24    1
    45    23    52    1
    46    23    53    1
    47    24    25    1
    48    25    26    1
    49    25    27    1
    50    25    33    1
    51    27    32   ar
    52    27    28   ar
    53    28    29   ar
    54    28    54    1
    55    29    30   ar
    56    29    55    1
    57    30    31   ar
    58    30    56    1
    59    31    32   ar
    60    31    57    1
    61    32    58    1
    62    33    59    1
    63    33    60    1
    64    34    61    1
@<TRIPOS>SUBSTRUCTURE
     1 ZINC000462219577        1 TEMP              0 ****  ****    0 ROOT


##########                                Name:    ZINC000482139334
##########                DOCK_Rotatable_Bonds:                   4
##########                         Heavy_Atoms:                  26
##########                    Molecular_Weight:             348.376
##########                DOCK_Rotatable_Bonds:                   4
##########                       Formal_Charge:           0.0300002
##########                     HBond_Acceptors:                   5
##########                        HBond_Donors:                   1
##########                         Heavy_Atoms:                  26
##########                          Grid_Score:          -27.102213
##########                     Grid_vdw_energy:          -27.225039
##########                      Grid_es_energy:            0.122826
##########           Internal_energy_repulsive:           14.598974

@<TRIPOS>MOLECULE
ZINC000482139334
 43 47 1 0 0
SMALL
USER_CHARGES


@<TRIPOS>ATOM
      1 O1        -10.1320   -2.5526   55.9061 O.2     1  ZINC000482139334   -0.4800
      2 C2        -10.1937   -1.5535   56.5908 C.2     1  ZINC000482139334    0.5500
      3 N3         -9.5501   -0.4331   56.2073 N.am    1  ZINC000482139334   -0.6100
      4 C4         -8.8130   -0.4245   55.0335 C.2     1  ZINC000482139334    0.4300
      5 N5         -7.9840    0.5175   54.6632 N.2     1  ZINC000482139334   -0.4800
      6 C6         -7.4514    0.1746   53.4611 C.2     1  ZINC000482139334    0.0400
      7 C7         -6.4647    0.9610   52.6807 C.ar    1  ZINC000482139334   -0.0500
      8 C8         -6.2883    2.3179   52.9416 C.ar    1  ZINC000482139334   -0.0800
      9 C9         -5.3685    3.0450   52.2129 C.ar    1  ZINC000482139334   -0.1300
     10 C10        -4.6221    2.4298   51.2243 C.ar    1  ZINC000482139334   -0.0800
     11 C11        -4.7918    1.0829   50.9589 C.ar    1  ZINC000482139334   -0.1600
     12 C12        -5.7052    0.3430   51.6860 C.ar    1  ZINC000482139334    0.1300
     13 F13        -5.8707   -0.9726   51.4266 F       1  ZINC000482139334   -0.1200
     14 C14        -7.9870   -1.0175   53.1071 C.2     1  ZINC000482139334   -0.0600
     15 O15        -8.8294   -1.3838   54.0954 O.3     1  ZINC000482139334   -0.1800
     16 C16       -10.9951   -1.5629   57.8670 C.3     1  ZINC000482139334   -0.1800
     17 H17       -11.9506   -1.0400   57.8261 H       1  ZINC000482139334    0.1400
     18 C18       -10.9101   -2.8133   58.7465 C.3     1  ZINC000482139334   -0.1200
     19 C19       -10.2258   -1.5213   59.1816 C.3     1  ZINC000482139334   -0.0500
     20 C20        -8.6927   -1.4024   59.2042 C.3     1  ZINC000482139334   -0.0700
     21 C21        -8.4074   -1.1387   60.6994 C.3     1  ZINC000482139334   -0.0900
     22 C22        -9.6706   -0.5013   61.2390 C.ar    1  ZINC000482139334   -0.0800
     23 C23        -9.8862    0.2161   62.4031 C.ar    1  ZINC000482139334   -0.1100
     24 C24       -11.1434    0.7091   62.6943 C.ar    1  ZINC000482139334   -0.1100
     25 C25       -12.1907    0.4855   61.8206 C.ar    1  ZINC000482139334   -0.1200
     26 C26       -11.9783   -0.2298   60.6583 C.ar    1  ZINC000482139334   -0.1000
     27 C27       -10.7192   -0.7248   60.3634 C.ar    1  ZINC000482139334   -0.0700
     28 H28        -9.6027    0.3672   56.7529 H       1  ZINC000482139334    0.4400
     29 H29        -6.8706    2.8005   53.7127 H       1  ZINC000482139334    0.1300
     30 H30        -5.2316    4.0971   52.4151 H       1  ZINC000482139334    0.1400
     31 H31        -3.9041    3.0034   50.6570 H       1  ZINC000482139334    0.1400
     32 H32        -4.2067    0.6078   50.1854 H       1  ZINC000482139334    0.1400
     33 H33        -7.7769   -1.5727   52.2049 H       1  ZINC000482139334    0.2200
     34 H34       -11.8094   -3.1125   59.2847 H       1  ZINC000482139334    0.1200
     35 H35       -10.2744   -3.6291   58.4019 H       1  ZINC000482139334    0.1100
     36 H36        -8.2264   -2.3322   58.8784 H       1  ZINC000482139334    0.0800
     37 H37        -8.3594   -0.5644   58.5919 H       1  ZINC000482139334    0.0900
     38 H38        -8.2064   -2.0766   61.2170 H       1  ZINC000482139334    0.0800
     39 H39        -7.5638   -0.4572   60.8088 H       1  ZINC000482139334    0.0800
     40 H40        -9.0684    0.3908   63.0865 H       1  ZINC000482139334    0.1200
     41 H41       -11.3076    1.2681   63.6036 H       1  ZINC000482139334    0.1300
     42 H42       -13.1745    0.8695   62.0468 H       1  ZINC000482139334    0.1300
     43 H43       -12.7978   -0.4041   59.9767 H       1  ZINC000482139334    0.1200
@<TRIPOS>BOND
     1     1     2    2
     2     2     3   am
     3     2    16    1
     4     3     4    1
     5     3    28    1
     6     4    15    1
     7     4     5    2
     8     5     6    1
     9     6     7    1
    10     6    14    2
    11     7    12   ar
    12     7     8   ar
    13     8     9   ar
    14     8    29    1
    15     9    10   ar
    16     9    30    1
    17    10    11   ar
    18    10    31    1
    19    11    12   ar
    20    11    32    1
    21    12    13    1
    22    14    15    1
    23    14    33    1
    24    16    17    1
    25    16    19    1
    26    16    18    1
    27    18    19    1
    28    18    34    1
    29    18    35    1
    30    19    27    1
    31    19    20    1
    32    20    21    1
    33    20    36    1
    34    20    37    1
    35    21    22    1
    36    21    38    1
    37    21    39    1
    38    22    27   ar
    39    22    23   ar
    40    23    24   ar
    41    23    40    1
    42    24    25   ar
    43    24    41    1
    44    25    26   ar
    45    25    42    1
    46    26    27   ar
    47    26    43    1
@<TRIPOS>SUBSTRUCTURE
     1 ZINC000482139334        1 TEMP              0 ****  ****    0 ROOT


##########                                Name:    ZINC000647468483
##########                DOCK_Rotatable_Bonds:                   5
##########                         Heavy_Atoms:                  24
##########                    Molecular_Weight:             341.373
##########                DOCK_Rotatable_Bonds:                   5
##########                       Formal_Charge:           0.0300004
##########                     HBond_Acceptors:                   6
##########                        HBond_Donors:                   2
##########                         Heavy_Atoms:                  24
##########                          Grid_Score:          -27.079035
##########                     Grid_vdw_energy:          -23.614260
##########                      Grid_es_energy:           -3.464775
##########           Internal_energy_repulsive:           19.594698

@<TRIPOS>MOLECULE
ZINC000647468483
 46 48 1 0 0
SMALL
USER_CHARGES


@<TRIPOS>ATOM
      1 O1         -8.6514    1.0305   55.2135 O.co2   1  ZINC000647468483   -0.6800
      2 C2         -8.0728    2.0145   54.7852 C.2     1  ZINC000647468483    0.5000
      3 O3         -7.9127    2.9877   55.5020 O.co2   1  ZINC000647468483   -0.6900
      4 C4         -7.5498    2.0254   53.3718 C.3     1  ZINC000647468483   -0.1500
      5 H5         -8.2819    2.4645   52.6941 H       1  ZINC000647468483    0.0800
      6 C6         -7.1688    0.5950   52.9164 C.3     1  ZINC000647468483   -0.1100
      7 C7         -6.1362    0.8183   51.7923 C.3     1  ZINC000647468483   -0.1400
      8 C8         -5.5200    2.2079   52.0311 C.3     1  ZINC000647468483    0.0100
      9 H9         -5.7147    2.8547   51.1756 H       1  ZINC000647468483    0.1400
     10 N10        -4.0726    2.0857   52.2500 N.4     1  ZINC000647468483   -0.5000
     11 H11        -3.9026    1.5114   53.0621 H       1  ZINC000647468483    0.4200
     12 H12        -3.6450    1.6598   51.4414 H       1  ZINC000647468483    0.4300
     13 C13        -3.4955    3.4195   52.4638 C.3     1  ZINC000647468483    0.0200
     14 H14        -4.2226    4.1874   52.1998 H       1  ZINC000647468483    0.1500
     15 C15        -3.0693    3.5800   53.9336 C.3     1  ZINC000647468483   -0.1400
     16 C16        -1.5483    3.8376   53.9259 C.3     1  ZINC000647468483   -0.1300
     17 C17        -1.0666    3.2278   52.5861 C.3     1  ZINC000647468483   -0.1300
     18 C18        -2.2192    3.5855   51.6132 C.3     1  ZINC000647468483   -0.0600
     19 H19        -2.1213    4.6148   51.2679 H       1  ZINC000647468483    0.1300
     20 C20        -2.2346    2.6369   50.4422 C.ar    1  ZINC000647468483   -0.1200
     21 C21        -3.3327    2.5913   49.6042 C.ar    1  ZINC000647468483   -0.0700
     22 C22        -3.3469    1.7210   48.5300 C.ar    1  ZINC000647468483   -0.1000
     23 C23        -2.2627    0.8970   48.2939 C.ar    1  ZINC000647468483   -0.0600
     24 C24        -1.1639    0.9432   49.1318 C.ar    1  ZINC000647468483   -0.1600
     25 C25         0.0181    0.0443   48.8746 C.3     1  ZINC000647468483    0.5000
     26 F26         0.3709    0.1132   47.5227 F       1  ZINC000647468483   -0.1700
     27 F27         1.0988    0.4586   49.6605 F       1  ZINC000647468483   -0.1700
     28 F28        -0.3185   -1.2736   49.2021 F       1  ZINC000647468483   -0.1700
     29 C29        -1.1480    1.8162   50.2032 C.ar    1  ZINC000647468483   -0.1100
     30 C30        -6.2023    2.7849   53.2911 C.3     1  ZINC000647468483   -0.1200
     31 H31        -6.7216    0.0387   53.7402 H       1  ZINC000647468483    0.0800
     32 H32        -8.0441    0.0712   52.5318 H       1  ZINC000647468483    0.0800
     33 H33        -5.3614    0.0531   51.8396 H       1  ZINC000647468483    0.0700
     34 H34        -6.6299    0.7906   50.8208 H       1  ZINC000647468483    0.1000
     35 H35        -3.5890    4.4264   54.3827 H       1  ZINC000647468483    0.1000
     36 H36        -3.2908    2.6682   54.4883 H       1  ZINC000647468483    0.0900
     37 H37        -1.3424    4.9076   53.9539 H       1  ZINC000647468483    0.0800
     38 H38        -1.0719    3.3343   54.7672 H       1  ZINC000647468483    0.0900
     39 H39        -0.1330    3.6896   52.2650 H       1  ZINC000647468483    0.0900
     40 H40        -0.9547    2.1469   52.6717 H       1  ZINC000647468483    0.0800
     41 H41        -4.1799    3.2354   49.7887 H       1  ZINC000647468483    0.1400
     42 H42        -4.2052    1.6850   47.8756 H       1  ZINC000647468483    0.1500
     43 H43        -2.2741    0.2166   47.4553 H       1  ZINC000647468483    0.1500
     44 H44        -0.2896    1.8524   50.8577 H       1  ZINC000647468483    0.1400
     45 H45        -6.3687    3.8561   53.1781 H       1  ZINC000647468483    0.0900
     46 H46        -5.6005    2.5827   54.1772 H       1  ZINC000647468483    0.1000
@<TRIPOS>BOND
     1     1     2   ar
     2     2     3   ar
     3     2     4    1
     4     4     5    1
     5     4    30    1
     6     4     6    1
     7     6     7    1
     8     6    31    1
     9     6    32    1
    10     7     8    1
    11     7    33    1
    12     7    34    1
    13     8     9    1
    14     8    10    1
    15     8    30    1
    16    10    11    1
    17    10    12    1
    18    10    13    1
    19    13    14    1
    20    13    18    1
    21    13    15    1
    22    15    16    1
    23    15    35    1
    24    15    36    1
    25    16    17    1
    26    16    37    1
    27    16    38    1
    28    17    18    1
    29    17    39    1
    30    17    40    1
    31    18    19    1
    32    18    20    1
    33    20    29   ar
    34    20    21   ar
    35    21    22   ar
    36    21    41    1
    37    22    23   ar
    38    22    42    1
    39    23    24   ar
    40    23    43    1
    41    24    25    1
    42    24    29   ar
    43    25    26    1
    44    25    27    1
    45    25    28    1
    46    29    44    1
    47    30    45    1
    48    30    46    1
@<TRIPOS>SUBSTRUCTURE
     1 ZINC000647468483        1 TEMP              0 ****  ****    0 ROOT


##########                                Name:    ZINC001023407238
##########                DOCK_Rotatable_Bonds:                   7
##########                         Heavy_Atoms:                  25
##########                    Molecular_Weight:             349.387
##########                DOCK_Rotatable_Bonds:                   7
##########                       Formal_Charge:          -0.0300008
##########                     HBond_Acceptors:                   8
##########                        HBond_Donors:                   2
##########                         Heavy_Atoms:                  25
##########                          Grid_Score:          -27.068504
##########                     Grid_vdw_energy:          -23.272135
##########                      Grid_es_energy:           -3.796369
##########           Internal_energy_repulsive:            6.421309

@<TRIPOS>MOLECULE
ZINC001023407238
 48 50 1 0 0
SMALL
USER_CHARGES


@<TRIPOS>ATOM
      1 C1        -12.0556    1.1560   52.3495 C.3     1  ZINC001023407238   -0.0900
      2 C2        -11.9064    0.0566   53.3694 C.2     1  ZINC001023407238   -0.1100
      3 C3        -10.9578   -0.9438   53.3627 C.2     1  ZINC001023407238   -0.0500
      4 C4         -9.9054   -1.1340   52.3588 C.2     1  ZINC001023407238    0.6100
      5 O5        -10.1075   -1.8461   51.3929 O.2     1  ZINC001023407238   -0.5100
      6 N6         -8.7146   -0.5202   52.5062 N.am    1  ZINC001023407238   -0.6100
      7 C7         -7.5772   -0.6230   51.5803 C.3     1  ZINC001023407238    0.0800
      8 C8         -6.4479    0.2668   52.1412 C.3     1  ZINC001023407238    0.0900
      9 H9         -5.7435   -0.3262   52.7244 H       1  ZINC001023407238    0.0800
     10 O10        -5.7743    0.9545   51.0852 O.3     1  ZINC001023407238   -0.5500
     11 C11        -7.2114    1.2645   53.0518 C.3     1  ZINC001023407238    0.1400
     12 H12        -7.6257    2.0871   52.4689 H       1  ZINC001023407238    0.1200
     13 N13        -6.3461    1.7665   54.1221 N.am    1  ZINC001023407238   -0.7200
     14 C14        -6.6775    2.8926   54.7842 C.2     1  ZINC001023407238    0.5200
     15 O15        -7.6914    3.4912   54.4930 O.2     1  ZINC001023407238   -0.5300
     16 C16        -5.7883    3.4081   55.8864 C.3     1  ZINC001023407238   -0.1300
     17 C17        -5.0200    4.6345   55.3902 C.3     1  ZINC001023407238   -0.1100
     18 H18        -5.7072    5.4151   55.0636 H       1  ZINC001023407238    0.1100
     19 C19        -4.0637    5.1645   56.4828 C.3     1  ZINC001023407238    0.0600
     20 O20        -2.9022    5.6489   55.7460 O.3     1  ZINC001023407238   -0.3500
     21 C21        -2.7388    4.9290   54.6269 C.2     1  ZINC001023407238    0.4800
     22 O22        -1.7069    4.8361   54.0052 O.2     1  ZINC001023407238   -0.4600
     23 C23        -4.0442    4.2505   54.2556 C.3     1  ZINC001023407238   -0.1800
     24 C24        -8.3390    0.3704   53.6194 C.3     1  ZINC001023407238    0.1000
     25 N25       -11.1778   -1.7313   54.4701 N.pl3   1  ZINC001023407238   -0.4200
     26 C26       -10.3955   -2.9106   54.8489 C.3     1  ZINC001023407238    0.0700
     27 C27       -12.2386   -1.2341   55.1515 C.2     1  ZINC001023407238    0.0100
     28 C28       -12.7002   -0.1375   54.5041 C.2     1  ZINC001023407238   -0.2000
     29 H29       -11.4556    2.0148   52.6506 H       1  ZINC001023407238    0.0600
     30 H30       -11.7160    0.7984   51.3775 H       1  ZINC001023407238    0.0600
     31 H31       -13.1031    1.4500   52.2828 H       1  ZINC001023407238    0.0700
     32 H32        -7.2394   -1.6576   51.5215 H       1  ZINC001023407238    0.0800
     33 H33        -7.8709   -0.2700   50.5917 H       1  ZINC001023407238    0.0800
     34 H34        -5.2106    1.6806   51.3854 H       1  ZINC001023407238    0.3900
     35 H35        -5.5347    1.2884   54.3543 H       1  ZINC001023407238    0.4100
     36 H36        -6.3986    3.6849   56.7460 H       1  ZINC001023407238    0.1000
     37 H37        -5.0824    2.6302   56.1774 H       1  ZINC001023407238    0.1100
     38 H38        -4.5313    5.9796   57.0351 H       1  ZINC001023407238    0.1200
     39 H39        -3.7766    4.3602   57.1601 H       1  ZINC001023407238    0.0800
     40 H40        -3.9131    3.1690   54.2206 H       1  ZINC001023407238    0.1100
     41 H41        -4.4048    4.6211   53.2960 H       1  ZINC001023407238    0.1200
     42 H42        -9.1892    0.9803   53.9251 H       1  ZINC001023407238    0.0900
     43 H43        -7.9705   -0.2170   54.4604 H       1  ZINC001023407238    0.0800
     44 H44        -9.6218   -2.6204   55.5597 H       1  ZINC001023407238    0.0800
     45 H45       -11.0519   -3.6499   55.3081 H       1  ZINC001023407238    0.0900
     46 H46        -9.9308   -3.3390   53.9609 H       1  ZINC001023407238    0.0800
     47 H47       -12.6467   -1.6431   56.0638 H       1  ZINC001023407238    0.1700
     48 H48       -13.5374    0.4741   54.8066 H       1  ZINC001023407238    0.1400
@<TRIPOS>BOND
     1     1     2    1
     2     1    29    1
     3     1    30    1
     4     1    31    1
     5     2    28    1
     6     2     3    2
     7     3     4    1
     8     3    25    1
     9     4     5    2
    10     4     6   am
    11     6    24    1
    12     6     7    1
    13     7     8    1
    14     7    32    1
    15     7    33    1
    16     8     9    1
    17     8    10    1
    18     8    11    1
    19    10    34    1
    20    11    12    1
    21    11    13    1
    22    11    24    1
    23    13    14   am
    24    13    35    1
    25    14    15    2
    26    14    16    1
    27    16    17    1
    28    16    36    1
    29    16    37    1
    30    17    18    1
    31    17    23    1
    32    17    19    1
    33    19    20    1
    34    19    38    1
    35    19    39    1
    36    20    21    1
    37    21    22    2
    38    21    23    1
    39    23    40    1
    40    23    41    1
    41    24    42    1
    42    24    43    1
    43    25    26    1
    44    25    27    1
    45    26    44    1
    46    26    45    1
    47    26    46    1
    48    27    28    2
    49    27    47    1
    50    28    48    1
@<TRIPOS>SUBSTRUCTURE
     1 ZINC001023407238        1 TEMP              0 ****  ****    0 ROOT


##########                                Name:    ZINC001074839487
##########                DOCK_Rotatable_Bonds:                   7
##########                         Heavy_Atoms:                  25
##########                    Molecular_Weight:             344.454
##########                DOCK_Rotatable_Bonds:                   7
##########                       Formal_Charge:          -0.0500005
##########                     HBond_Acceptors:                   5
##########                        HBond_Donors:                   1
##########                         Heavy_Atoms:                  25
##########                          Grid_Score:          -27.042089
##########                     Grid_vdw_energy:          -26.442957
##########                      Grid_es_energy:           -0.599132
##########           Internal_energy_repulsive:           90.589867

@<TRIPOS>MOLECULE
ZINC001074839487
 53 55 1 0 0
SMALL
USER_CHARGES


@<TRIPOS>ATOM
      1 C1         -8.3704   -0.7331   53.2244 C.3     1  ZINC001074839487   -0.1500
      2 C2         -9.6721   -0.2855   53.8924 C.3     1  ZINC001074839487   -0.1300
      3 C3         -9.7104   -0.8021   55.3321 C.3     1  ZINC001074839487   -0.1100
      4 C4        -10.2907   -2.2177   55.3508 C.3     1  ZINC001074839487   -0.1400
      5 C5        -10.1135   -2.8151   56.7228 C.2     1  ZINC001074839487    0.5100
      6 O6        -10.3681   -3.9857   56.9121 O.2     1  ZINC001074839487   -0.5400
      7 N7         -9.6720   -2.0487   57.7397 N.am    1  ZINC001074839487   -0.7300
      8 C8         -9.4981   -2.6299   59.0731 C.3     1  ZINC001074839487    0.1400
      9 H9         -9.1700   -3.6650   58.9781 H       1  ZINC001074839487    0.0900
     10 C10        -8.4456   -1.8302   59.8446 C.3     1  ZINC001074839487   -0.1500
     11 C11        -8.8939   -0.3689   59.9464 C.3     1  ZINC001074839487    0.0700
     12 N12       -10.2377   -0.3267   60.5389 N.am    1  ZINC001074839487   -0.6000
     13 C13       -10.4870    0.4356   61.6221 C.2     1  ZINC001074839487    0.5600
     14 O14       -11.6031    0.4621   62.1029 O.2     1  ZINC001074839487   -0.5200
     15 C15        -9.4030    1.2396   62.2256 C.ar    1  ZINC001074839487   -0.1300
     16 C16        -9.0622    2.4781   61.6798 C.ar    1  ZINC001074839487   -0.1000
     17 C17        -8.0492    3.2247   62.2471 C.ar    1  ZINC001074839487   -0.1000
     18 C18        -7.3732    2.7480   63.3530 C.ar    1  ZINC001074839487   -0.1100
     19 C19        -6.2445    3.3150   64.1828 C.3     1  ZINC001074839487    0.0900
     20 O20        -5.6960    2.2048   64.9162 O.3     1  ZINC001074839487   -0.3600
     21 C21        -6.7945    1.2899   65.0829 C.3     1  ZINC001074839487    0.0900
     22 C22        -7.7074    1.5170   63.9004 C.ar    1  ZINC001074839487   -0.1400
     23 C23        -8.7195    0.7655   63.3475 C.ar    1  ZINC001074839487   -0.0400
     24 C24       -11.3045   -1.1316   59.9285 C.3     1  ZINC001074839487    0.1500
     25 H25       -11.5263   -0.7491   58.9322 H       1  ZINC001074839487    0.0700
     26 C26       -12.5610   -1.0628   60.7989 C.3     1  ZINC001074839487   -0.1400
     27 C27       -10.8293   -2.5844   59.8268 C.3     1  ZINC001074839487   -0.1400
     28 H28        -7.5214   -0.3312   53.7773 H       1  ZINC001074839487    0.0500
     29 H29        -8.3432   -0.3652   52.1988 H       1  ZINC001074839487    0.0500
     30 H30        -8.3193   -1.8220   53.2213 H       1  ZINC001074839487    0.0500
     31 H31        -9.7232    0.8032   53.8956 H       1  ZINC001074839487    0.0600
     32 H32       -10.5211   -0.6876   53.3395 H       1  ZINC001074839487    0.0600
     33 H33        -8.6994   -0.8185   55.7393 H       1  ZINC001074839487    0.0700
     34 H34       -10.3353   -0.1452   55.9372 H       1  ZINC001074839487    0.0700
     35 H35       -11.3521   -2.1784   55.1058 H       1  ZINC001074839487    0.0900
     36 H36        -9.7709   -2.8331   54.6166 H       1  ZINC001074839487    0.0900
     37 H37        -9.4696   -1.1121   57.5886 H       1  ZINC001074839487    0.4000
     38 H38        -8.3336   -2.2470   60.8455 H       1  ZINC001074839487    0.0800
     39 H39        -7.4920   -1.8825   59.3194 H       1  ZINC001074839487    0.0800
     40 H40        -8.1984    0.1834   60.5784 H       1  ZINC001074839487    0.1200
     41 H41        -8.9190    0.0758   58.9516 H       1  ZINC001074839487    0.0700
     42 H42        -9.5906    2.8519   60.8151 H       1  ZINC001074839487    0.1500
     43 H43        -7.7850    4.1833   61.8257 H       1  ZINC001074839487    0.1400
     44 H44        -5.4835    3.7497   63.5346 H       1  ZINC001074839487    0.1000
     45 H45        -6.6266    4.0682   64.8718 H       1  ZINC001074839487    0.0800
     46 H46        -6.4306    0.2624   65.0845 H       1  ZINC001074839487    0.1000
     47 H47        -7.3232    1.5032   66.0119 H       1  ZINC001074839487    0.0800
     48 H48        -8.9816   -0.1900   63.7774 H       1  ZINC001074839487    0.1400
     49 H49       -12.9585   -0.0479   60.7834 H       1  ZINC001074839487    0.0800
     50 H50       -13.3103   -1.7525   60.4104 H       1  ZINC001074839487    0.0500
     51 H51       -12.3092   -1.3388   61.8228 H       1  ZINC001074839487    0.0700
     52 H52       -11.5721   -3.1734   59.2889 H       1  ZINC001074839487    0.0900
     53 H53       -10.6947   -2.9941   60.8278 H       1  ZINC001074839487    0.0900
@<TRIPOS>BOND
     1     1     2    1
     2     1    28    1
     3     1    29    1
     4     1    30    1
     5     2     3    1
     6     2    31    1
     7     2    32    1
     8     3     4    1
     9     3    33    1
    10     3    34    1
    11     4     5    1
    12     4    35    1
    13     4    36    1
    14     5     6    2
    15     5     7   am
    16     7     8    1
    17     7    37    1
    18     8     9    1
    19     8    27    1
    20     8    10    1
    21    10    11    1
    22    10    38    1
    23    10    39    1
    24    11    12    1
    25    11    40    1
    26    11    41    1
    27    12    13   am
    28    12    24    1
    29    13    14    2
    30    13    15    1
    31    15    23   ar
    32    15    16   ar
    33    16    17   ar
    34    16    42    1
    35    17    18   ar
    36    17    43    1
    37    18    22   ar
    38    18    19    1
    39    19    20    1
    40    19    44    1
    41    19    45    1
    42    20    21    1
    43    21    22    1
    44    21    46    1
    45    21    47    1
    46    22    23   ar
    47    23    48    1
    48    24    25    1
    49    24    26    1
    50    24    27    1
    51    26    49    1
    52    26    50    1
    53    26    51    1
    54    27    52    1
    55    27    53    1
@<TRIPOS>SUBSTRUCTURE
     1 ZINC001074839487        1 TEMP              0 ****  ****    0 ROOT


##########                                Name:    ZINC001009116151
##########                DOCK_Rotatable_Bonds:                   6
##########                         Heavy_Atoms:                  25
##########                    Molecular_Weight:             342.481
##########                DOCK_Rotatable_Bonds:                   6
##########                       Formal_Charge:           0.0600006
##########                     HBond_Acceptors:                   4
##########                        HBond_Donors:                   1
##########                         Heavy_Atoms:                  25
##########                          Grid_Score:          -27.040064
##########                     Grid_vdw_energy:          -28.233948
##########                      Grid_es_energy:            1.193884
##########           Internal_energy_repulsive:           14.408643

@<TRIPOS>MOLECULE
ZINC001009116151
 55 59 1 0 0
SMALL
USER_CHARGES


@<TRIPOS>ATOM
      1 O1         -2.2570    3.8831   47.4810 O.2     1  ZINC001009116151   -0.5400
      2 C2         -2.1706    2.8862   48.1664 C.2     1  ZINC001009116151    0.5200
      3 N3         -2.7478    2.8533   49.3838 N.am    1  ZINC001009116151   -0.7300
      4 C4         -3.4744    4.0239   49.8819 C.3     1  ZINC001009116151    0.1500
      5 C5         -3.1573    4.2282   51.3646 C.3     1  ZINC001009116151   -0.1200
      6 H6         -3.3299    5.2342   51.7473 H       1  ZINC001009116151    0.1100
      7 C7         -1.9809    3.4436   51.9489 C.3     1  ZINC001009116151   -0.1700
      8 H8         -1.3688    2.8250   51.2926 H       1  ZINC001009116151    0.1200
      9 C9         -1.3341    3.9638   53.2506 C.3     1  ZINC001009116151    0.1300
     10 N10        -2.1337    3.3504   54.3365 N.am    1  ZINC001009116151   -0.6200
     11 C11        -1.6915    2.8480   55.5062 C.2     1  ZINC001009116151    0.5500
     12 O12        -2.4777    2.3739   56.2987 O.2     1  ZINC001009116151   -0.5300
     13 C13        -0.2198    2.8752   55.8295 C.3     1  ZINC001009116151   -0.1200
     14 C14         0.1596    4.1722   56.5811 C.3     1  ZINC001009116151   -0.0900
     15 C15         0.0688    3.8084   58.0449 C.2     1  ZINC001009116151   -0.1800
     16 C16         0.0570    2.5134   58.2075 C.2     1  ZINC001009116151   -0.1500
     17 C17         0.1380    1.7976   56.8792 C.3     1  ZINC001009116151   -0.0900
     18 C18        -3.5297    3.4145   53.8447 C.3     1  ZINC001009116151    0.1200
     19 C19        -3.4284    3.0574   52.3115 C.3     1  ZINC001009116151   -0.1600
     20 H20        -3.9095    2.1395   51.9738 H       1  ZINC001009116151    0.1300
     21 C21        -1.4231    1.6820   47.6541 C.3     1  ZINC001009116151   -0.0700
     22 C22        -0.2267    2.1418   46.8186 C.3     1  ZINC001009116151   -0.1100
     23 C23         0.5321    0.9192   46.2985 C.3     1  ZINC001009116151   -0.1100
     24 C24        -0.1585   -0.3556   46.7873 C.3     1  ZINC001009116151   -0.0900
     25 C25        -0.1698   -0.3751   48.3171 C.3     1  ZINC001009116151   -0.1100
     26 C26        -0.9285    0.8475   48.8372 C.3     1  ZINC001009116151   -0.0900
     27 C27        -1.5967   -0.3883   46.2663 C.3     1  ZINC001009116151   -0.1100
     28 C28        -2.3555    0.8343   46.7864 C.3     1  ZINC001009116151   -0.1000
     29 H29        -2.6820    2.0547   49.9304 H       1  ZINC001009116151    0.4000
     30 H30        -3.1696    4.9068   49.3201 H       1  ZINC001009116151    0.0800
     31 H31        -4.5458    3.8663   49.7577 H       1  ZINC001009116151    0.0700
     32 H32        -0.2951    3.6403   53.3145 H       1  ZINC001009116151    0.0900
     33 H33        -1.3982    5.0509   53.2989 H       1  ZINC001009116151    0.0800
     34 H34         0.3792    2.7560   54.9266 H       1  ZINC001009116151    0.1100
     35 H35         1.1756    4.4747   56.3275 H       1  ZINC001009116151    0.0900
     36 H36        -0.5454    4.9688   56.3434 H       1  ZINC001009116151    0.0800
     37 H37         0.0203    4.5257   58.8508 H       1  ZINC001009116151    0.1300
     38 H38        -0.0025    2.0185   59.1655 H       1  ZINC001009116151    0.1300
     39 H39        -0.5816    0.9796   56.8442 H       1  ZINC001009116151    0.0900
     40 H40         1.1478    1.4234   56.7105 H       1  ZINC001009116151    0.0900
     41 H41        -4.1473    2.6766   54.3567 H       1  ZINC001009116151    0.0900
     42 H42        -3.9367    4.4157   53.9857 H       1  ZINC001009116151    0.0800
     43 H43        -0.5792    2.7363   45.9757 H       1  ZINC001009116151    0.0700
     44 H44         0.4374    2.7458   47.4368 H       1  ZINC001009116151    0.0700
     45 H45         0.5400    0.9331   45.2086 H       1  ZINC001009116151    0.0700
     46 H46         1.5566    0.9425   46.6697 H       1  ZINC001009116151    0.0700
     47 H47         0.3821   -1.2266   46.4167 H       1  ZINC001009116151    0.0700
     48 H48        -0.6617   -1.2833   48.6653 H       1  ZINC001009116151    0.0700
     49 H49         0.8549   -0.3517   48.6883 H       1  ZINC001009116151    0.0700
     50 H50        -0.2643    1.4514   49.4554 H       1  ZINC001009116151    0.0700
     51 H51        -1.7809    0.5200   49.4324 H       1  ZINC001009116151    0.0700
     52 H52        -1.5888   -0.3744   45.1764 H       1  ZINC001009116151    0.0700
     53 H53        -2.0887   -1.2965   46.6145 H       1  ZINC001009116151    0.0700
     54 H54        -3.2079    0.5067   47.3816 H       1  ZINC001009116151    0.0700
     55 H55        -2.7080    1.4288   45.9435 H       1  ZINC001009116151    0.0700
@<TRIPOS>BOND
     1     1     2    2
     2     2     3   am
     3     2    21    1
     4     3     4    1
     5     3    29    1
     6     4     5    1
     7     4    30    1
     8     4    31    1
     9     5     6    1
    10     5    19    1
    11     5     7    1
    12     7     8    1
    13     7    19    1
    14     7     9    1
    15     9    10    1
    16     9    32    1
    17     9    33    1
    18    10    11   am
    19    10    18    1
    20    11    12    2
    21    11    13    1
    22    13    17    1
    23    13    14    1
    24    13    34    1
    25    14    15    1
    26    14    35    1
    27    14    36    1
    28    15    16    2
    29    15    37    1
    30    16    17    1
    31    16    38    1
    32    17    39    1
    33    17    40    1
    34    18    19    1
    35    18    41    1
    36    18    42    1
    37    19    20    1
    38    21    26    1
    39    21    28    1
    40    21    22    1
    41    22    23    1
    42    22    43    1
    43    22    44    1
    44    23    24    1
    45    23    45    1
    46    23    46    1
    47    24    25    1
    48    24    27    1
    49    24    47    1
    50    25    26    1
    51    25    48    1
    52    25    49    1
    53    26    50    1
    54    26    51    1
    55    27    28    1
    56    27    52    1
    57    27    53    1
    58    28    54    1
    59    28    55    1
@<TRIPOS>SUBSTRUCTURE
     1 ZINC001009116151        1 TEMP              0 ****  ****    0 ROOT


##########                                Name:    ZINC000012087388
##########                DOCK_Rotatable_Bonds:                   5
##########                         Heavy_Atoms:                  29
##########                    Molecular_Weight:              418.52
##########                DOCK_Rotatable_Bonds:                   5
##########                       Formal_Charge:          -0.0499999
##########                     HBond_Acceptors:                  10
##########                        HBond_Donors:                   1
##########                         Heavy_Atoms:                  29
##########                          Grid_Score:          -27.017929
##########                     Grid_vdw_energy:          -28.399649
##########                      Grid_es_energy:            1.381720
##########           Internal_energy_repulsive:           33.562714

@<TRIPOS>MOLECULE
ZINC000012087388
 55 58 1 0 0
SMALL
USER_CHARGES


@<TRIPOS>ATOM
      1 C1         -1.1034    3.7073   53.6056 C.3     1  <0>        -0.6600
      2 S2         -2.5711    4.7558   53.7981 S.o2    1  <0>         2.5100
      3 O3         -2.7800    5.0748   55.1669 O.2     1  <0>        -0.9400
      4 O4         -2.5974    5.7652   52.7983 O.2     1  <0>        -0.9300
      5 C5         -3.9216    3.7015   53.3866 C.ar    1  <0>        -0.8400
      6 C6         -4.8744    3.3681   54.3362 C.ar    1  <0>         0.3000
      7 N7         -5.8760    2.5745   53.9944 N.ar    1  <0>        -0.5800
      8 C8         -5.9739    2.1003   52.7612 C.ar    1  <0>         0.6000
      9 N9         -7.0349    1.2725   52.4379 N.pl3   1  <0>        -0.5700
     10 C10        -6.9007    0.2621   51.3798 C.3     1  <0>         0.1200
     11 C11        -7.3025   -1.1029   51.9475 C.3     1  <0>        -0.1400
     12 C12        -8.7057   -1.0070   52.5507 C.3     1  <0>        -0.1200
     13 C13        -8.7028    0.0100   53.6943 C.3     1  <0>        -0.1400
     14 C14        -8.3151    1.3835   53.1505 C.3     1  <0>         0.1200
     15 N15        -5.0803    2.4000   51.8299 N.ar    1  <0>        -0.5700
     16 C16        -4.0572    3.1921   52.1045 C.ar    1  <0>         0.3200
     17 C17        -3.0455    3.5279   51.0394 C.3     1  <0>        -0.0700
     18 C18        -2.3824    2.2413   50.5421 C.3     1  <0>        -0.1300
     19 C19        -1.3303    2.5897   49.4845 C.3     1  <0>         0.0900
     20 N20        -1.9677    3.3873   48.4281 N.am    1  <0>        -0.6100
     21 C21        -1.8736    3.0160   47.1359 C.2     1  <0>         0.5900
     22 O22        -2.4060    3.6848   46.2707 O.2     1  <0>        -0.5100
     23 C23        -1.1270    1.8011   46.7719 C.2     1  <0>        -0.0400
     24 C24        -1.6595    0.5730   46.4203 C.2     1  <0>        -0.1500
     25 C25        -0.5587   -0.2486   46.1667 C.2     1  <0>         0.0000
     26 N26         0.5241    0.4604   46.3599 N.2     1  <0>        -0.2700
     27 N27         0.2303    1.6613   46.7078 N.pl3   1  <0>        -0.3900
     28 C28        -2.7100    4.5974   48.8071 C.3     1  <0>         0.1100
     29 C29        -3.7466    4.2266   49.8722 C.3     1  <0>        -0.1200
     30 H30        -1.1747    2.8549   54.2812 H       1  <0>         0.1400
     31 H31        -1.0433    3.3517   52.5770 H       1  <0>         0.1300
     32 H32        -0.2103    4.2854   53.8429 H       1  <0>         0.1400
     33 H33        -4.7998    3.7513   55.3431 H       1  <0>         0.1900
     34 H34        -7.5542    0.5175   50.5455 H       1  <0>         0.0700
     35 H35        -5.8663    0.2257   51.0383 H       1  <0>         0.1000
     36 H36        -7.2998   -1.8443   51.1485 H       1  <0>         0.0800
     37 H37        -6.5934   -1.3982   52.7209 H       1  <0>         0.0700
     38 H38        -9.4102   -0.6878   51.7826 H       1  <0>         0.0700
     39 H39        -9.0039   -1.9831   52.9335 H       1  <0>         0.0700
     40 H40        -9.6969    0.0606   54.1386 H       1  <0>         0.0800
     41 H41        -7.9806   -0.2958   54.4512 H       1  <0>         0.0700
     42 H42        -8.2155    2.0884   53.9759 H       1  <0>         0.1000
     43 H43        -9.0822    1.7327   52.4594 H       1  <0>         0.0700
     44 H44        -2.2862    4.1900   51.4556 H       1  <0>         0.1000
     45 H45        -1.9031    1.7324   51.3783 H       1  <0>         0.0800
     46 H46        -3.1375    1.5892   50.1031 H       1  <0>         0.0900
     47 H47        -0.5275    3.1665   49.9439 H       1  <0>         0.0800
     48 H48        -0.9253    1.6729   49.0561 H       1  <0>         0.0900
     49 H49        -2.7041    0.3065   46.3557 H       1  <0>         0.1700
     50 H50        -0.5949   -1.2850   45.8652 H       1  <0>         0.1900
     51 H51         0.8740    2.3604   46.9022 H       1  <0>         0.4400
     52 H52        -2.0197    5.3379   49.2112 H       1  <0>         0.0800
     53 H53        -3.2153    5.0053   47.9316 H       1  <0>         0.1000
     54 H54        -4.4888    3.5558   49.4395 H       1  <0>         0.0800
     55 H55        -4.2383    5.1306   50.2316 H       1  <0>         0.0900
@<TRIPOS>BOND
     1     1     2    1
     2     1    30    1
     3     1    31    1
     4     1    32    1
     5     2     3    2
     6     2     4    2
     7     2     5    1
     8     5    16   ar
     9     5     6   ar
    10     6     7   ar
    11     6    33    1
    12     7     8   ar
    13     8     9    1
    14     8    15   ar
    15     9    14    1
    16     9    10    1
    17    10    11    1
    18    10    34    1
    19    10    35    1
    20    11    12    1
    21    11    36    1
    22    11    37    1
    23    12    13    1
    24    12    38    1
    25    12    39    1
    26    13    14    1
    27    13    40    1
    28    13    41    1
    29    14    42    1
    30    14    43    1
    31    15    16   ar
    32    16    17    1
    33    17    29    1
    34    17    18    1
    35    17    44    1
    36    18    19    1
    37    18    45    1
    38    18    46    1
    39    19    20    1
    40    19    47    1
    41    19    48    1
    42    20    21   am
    43    20    28    1
    44    21    22    2
    45    21    23    1
    46    23    27    1
    47    23    24    2
    48    24    25    1
    49    24    49    1
    50    25    26    2
    51    25    50    1
    52    26    27    1
    53    27    51    1
    54    28    29    1
    55    28    52    1
    56    28    53    1
    57    29    54    1
    58    29    55    1
@<TRIPOS>SUBSTRUCTURE
     1 <0>         1 TEMP              0 ****  ****    0 ROOT


##########                                Name:    ZINC000055987960
##########                DOCK_Rotatable_Bonds:                   6
##########                         Heavy_Atoms:                  28
##########                    Molecular_Weight:             404.868
##########                DOCK_Rotatable_Bonds:                   6
##########                       Formal_Charge:          0.00999941
##########                     HBond_Acceptors:                   7
##########                        HBond_Donors:                   1
##########                         Heavy_Atoms:                  28
##########                          Grid_Score:          -26.985350
##########                     Grid_vdw_energy:          -27.246687
##########                      Grid_es_energy:            0.261338
##########           Internal_energy_repulsive:           18.224701

@<TRIPOS>MOLECULE
ZINC000055987960
 50 52 1 0 0
SMALL
USER_CHARGES


@<TRIPOS>ATOM
      1 C1        -10.6371    2.1473   52.0615 C.3     1  ZINC000055987960   -0.1800
      2 C2        -10.6887    0.6632   51.6931 C.3     1  ZINC000055987960    0.0700
      3 H3        -10.8959    0.5595   50.6280 H       1  ZINC000055987960    0.1200
      4 C4         -9.3418    0.0078   52.0188 C.3     1  ZINC000055987960    0.0800
      5 N5         -9.1729   -0.0042   53.4806 N.am    1  ZINC000055987960   -0.6100
      6 C6         -8.0438    0.4591   54.0524 C.2     1  ZINC000055987960    0.5700
      7 O7         -7.9233    0.4408   55.2621 O.2     1  ZINC000055987960   -0.5300
      8 C8         -6.9537    0.9888   53.2101 C.ar    1  ZINC000055987960   -0.1500
      9 C9         -6.1927    0.1210   52.4223 C.ar    1  ZINC000055987960   -0.0700
     10 C10        -5.1767    0.6184   51.6375 C.ar    1  ZINC000055987960   -0.1500
     11 C11        -4.9074    1.9834   51.6281 C.ar    1  ZINC000055987960    0.1700
     12 N12        -3.8781    2.4838   50.8317 N.am    1  ZINC000055987960   -0.6700
     13 C13        -3.8047    2.1400   49.5306 C.2     1  ZINC000055987960    0.5200
     14 O14        -4.6340    1.3953   49.0525 O.2     1  ZINC000055987960   -0.5000
     15 C15        -2.6922    2.6808   48.6698 C.3     1  ZINC000055987960   -0.1100
     16 C16        -1.8021    1.5477   48.2287 C.ar    1  ZINC000055987960   -0.1000
     17 C17        -1.0503    0.8543   49.1614 C.ar    1  ZINC000055987960    0.1300
     18 F18        -1.1140    1.1931   50.4677 F       1  ZINC000055987960   -0.1300
     19 C19        -0.2330   -0.1871   48.7547 C.ar    1  ZINC000055987960   -0.1500
     20 C20        -0.1684   -0.5336   47.4187 C.ar    1  ZINC000055987960   -0.0700
     21 C21        -0.9194    0.1589   46.4870 C.ar    1  ZINC000055987960   -0.1200
     22 C22        -1.7403    1.1961   46.8921 C.ar    1  ZINC000055987960    0.0000
     23 Cl23       -2.6833    2.0647   45.7216 Cl      1  ZINC000055987960   -0.0500
     24 C24        -5.6632    2.8501   52.4113 C.ar    1  ZINC000055987960   -0.1200
     25 C25        -6.6839    2.3600   53.1944 C.ar    1  ZINC000055987960   -0.0500
     26 C26       -10.2734   -0.5365   54.2996 C.3     1  ZINC000055987960    0.0600
     27 C27       -11.5750    0.1455   53.8628 C.3     1  ZINC000055987960    0.0700
     28 H28       -11.5414    1.2009   54.1331 H       1  ZINC000055987960    0.0700
     29 C29       -12.7614   -0.5233   54.5600 C.3     1  ZINC000055987960   -0.1500
     30 O30       -11.7204    0.0201   52.4451 O.3     1  ZINC000055987960   -0.3700
     31 H31       -10.4299    2.2503   53.1267 H       1  ZINC000055987960    0.0600
     32 H32        -9.8491    2.6367   51.4890 H       1  ZINC000055987960    0.0700
     33 H33       -11.5957    2.6123   51.8313 H       1  ZINC000055987960    0.0700
     34 H34        -9.3295   -1.0140   51.6394 H       1  ZINC000055987960    0.0800
     35 H35        -8.5349    0.5797   51.5607 H       1  ZINC000055987960    0.1000
     36 H36        -6.4009   -0.9387   52.4293 H       1  ZINC000055987960    0.1400
     37 H37        -4.5879   -0.0518   51.0286 H       1  ZINC000055987960    0.1300
     38 H38        -3.2148    3.0794   51.2141 H       1  ZINC000055987960    0.4200
     39 H39        -3.1166    3.1717   47.7939 H       1  ZINC000055987960    0.1200
     40 H40        -2.1073    3.4009   49.2420 H       1  ZINC000055987960    0.1200
     41 H41         0.3541   -0.7283   49.4819 H       1  ZINC000055987960    0.1500
     42 H42         0.4693   -1.3456   47.1019 H       1  ZINC000055987960    0.1500
     43 H43        -0.8679   -0.1124   45.4430 H       1  ZINC000055987960    0.1400
     44 H44        -5.4513    3.9091   52.4021 H       1  ZINC000055987960    0.1500
     45 H45        -7.2702    3.0332   53.8021 H       1  ZINC000055987960    0.1300
     46 H46       -10.3549   -1.6131   54.1499 H       1  ZINC000055987960    0.0800
     47 H47       -10.0835   -0.3251   55.3518 H       1  ZINC000055987960    0.1100
     48 H48       -12.6476   -0.4302   55.6400 H       1  ZINC000055987960    0.0700
     49 H49       -13.6864   -0.0378   54.2489 H       1  ZINC000055987960    0.0700
     50 H50       -12.7953   -1.5782   54.2878 H       1  ZINC000055987960    0.0700
@<TRIPOS>BOND
     1     1     2    1
     2     1    31    1
     3     1    32    1
     4     1    33    1
     5     2     3    1
     6     2    30    1
     7     2     4    1
     8     4     5    1
     9     4    34    1
    10     4    35    1
    11     5     6   am
    12     5    26    1
    13     6     7    2
    14     6     8    1
    15     8    25   ar
    16     8     9   ar
    17     9    10   ar
    18     9    36    1
    19    10    11   ar
    20    10    37    1
    21    11    12    1
    22    11    24   ar
    23    12    13   am
    24    12    38    1
    25    13    14    2
    26    13    15    1
    27    15    16    1
    28    15    39    1
    29    15    40    1
    30    16    22   ar
    31    16    17   ar
    32    17    18    1
    33    17    19   ar
    34    19    20   ar
    35    19    41    1
    36    20    21   ar
    37    20    42    1
    38    21    22   ar
    39    21    43    1
    40    22    23    1
    41    24    25   ar
    42    24    44    1
    43    25    45    1
    44    26    27    1
    45    26    46    1
    46    26    47    1
    47    27    28    1
    48    27    29    1
    49    27    30    1
    50    29    48    1
    51    29    49    1
    52    29    50    1
@<TRIPOS>SUBSTRUCTURE
     1 ZINC000055987960        1 TEMP              0 ****  ****    0 ROOT


##########                                Name:    ZINC001122903793
##########                DOCK_Rotatable_Bonds:                   4
##########                         Heavy_Atoms:                  25
##########                    Molecular_Weight:             399.968
##########                DOCK_Rotatable_Bonds:                   4
##########                       Formal_Charge:           0.0100003
##########                     HBond_Acceptors:                   9
##########                        HBond_Donors:                   0
##########                         Heavy_Atoms:                  25
##########                          Grid_Score:          -26.947056
##########                     Grid_vdw_energy:          -27.683369
##########                      Grid_es_energy:            0.736312
##########           Internal_energy_repulsive:           21.979895

@<TRIPOS>MOLECULE
ZINC001122903793
 47 50 1 0 0
SMALL
USER_CHARGES


@<TRIPOS>ATOM
      1 C1        -10.8089    3.4738   60.4829 C.3     1  ZINC001122903793   -0.1400
      2 C2        -10.4619    2.0198   60.1565 C.3     1  ZINC001122903793   -0.0400
      3 H3        -11.3725    1.4714   59.9153 H       1  ZINC001122903793    0.1000
      4 S4         -9.6461    1.2500   61.5885 S.3     1  ZINC001122903793   -0.2500
      5 C5         -9.0881   -0.3362   60.8947 C.3     1  ZINC001122903793   -0.0800
      6 C6         -8.3137   -0.0563   59.6023 C.3     1  ZINC001122903793    0.0700
      7 N7         -9.1947    0.5841   58.6231 N.3     1  ZINC001122903793   -0.4800
      8 C8         -8.6675    0.4911   57.3454 C.2     1  ZINC001122903793    0.3700
      9 N9         -7.4631    0.8559   56.9723 N.2     1  ZINC001122903793   -0.2900
     10 N10        -7.3011    0.6310   55.7175 N.2     1  ZINC001122903793   -0.2400
     11 C11        -8.3956    0.1074   55.2109 C.2     1  ZINC001122903793    0.2600
     12 C12        -8.6087   -0.2905   53.8098 C.2     1  ZINC001122903793   -0.1600
     13 C13        -7.8488    0.0776   52.7511 C.2     1  ZINC001122903793    0.1600
     14 Cl14       -6.4620    1.1113   52.8988 Cl      1  ZINC001122903793    0.0300
     15 N15        -8.2528   -0.4159   51.6018 N.2     1  ZINC001122903793   -0.4600
     16 C16        -9.2989   -1.1735   51.6172 C.2     1  ZINC001122903793    0.0300
     17 S17        -9.8936   -1.3374   53.2114 S.3     1  ZINC001122903793    0.2200
     18 N18        -9.3029   -0.0026   56.2408 N.pl3   1  ZINC001122903793   -0.4600
     19 C19       -10.6670   -0.5316   56.1663 C.3     1  ZINC001122903793    0.1100
     20 C20       -10.6331   -2.0533   56.3215 C.3     1  ZINC001122903793    0.0700
     21 H21        -9.9047   -2.4867   55.6362 H       1  ZINC001122903793    0.0800
     22 C22       -10.2911   -2.4372   57.7832 C.3     1  ZINC001122903793   -0.1500
     23 C23       -10.9254   -3.8520   57.8725 C.3     1  ZINC001122903793   -0.1500
     24 C24       -12.1673   -3.7122   56.9660 C.3     1  ZINC001122903793    0.0500
     25 O25       -11.9359   -2.6083   56.0808 O.3     1  ZINC001122903793   -0.3700
     26 C26        -9.5023    1.9752   58.9626 C.3     1  ZINC001122903793    0.1000
     27 H27        -8.5813    2.4963   59.2241 H       1  ZINC001122903793    0.0800
     28 C28       -10.1500    2.6611   57.7581 C.3     1  ZINC001122903793   -0.1500
     29 H29       -11.2913    3.9346   59.6209 H       1  ZINC001122903793    0.0800
     30 H30       -11.4859    3.5029   61.3368 H       1  ZINC001122903793    0.0700
     31 H31        -9.8967    4.0197   60.7238 H       1  ZINC001122903793    0.0700
     32 H32        -8.4376   -0.8400   61.6097 H       1  ZINC001122903793    0.1200
     33 H33        -9.9517   -0.9641   60.6756 H       1  ZINC001122903793    0.0900
     34 H34        -7.4733    0.6031   59.8192 H       1  ZINC001122903793    0.0700
     35 H35        -7.9398   -0.9951   59.1937 H       1  ZINC001122903793    0.0900
     36 H36        -9.7337   -1.6411   50.7463 H       1  ZINC001122903793    0.2100
     37 H37       -11.2689   -0.0982   56.9651 H       1  ZINC001122903793    0.1200
     38 H38       -11.1043   -0.2744   55.2016 H       1  ZINC001122903793    0.1000
     39 H39        -9.2128   -2.4798   57.9361 H       1  ZINC001122903793    0.0900
     40 H40       -10.7594   -1.7515   58.4893 H       1  ZINC001122903793    0.0800
     41 H41       -10.2438   -4.6080   57.4827 H       1  ZINC001122903793    0.0800
     42 H42       -11.2171   -4.0825   58.8972 H       1  ZINC001122903793    0.0900
     43 H43       -12.3073   -4.6253   56.3873 H       1  ZINC001122903793    0.0700
     44 H44       -13.0502   -3.5200   57.5755 H       1  ZINC001122903793    0.0700
     45 H45       -11.0698    2.1391   57.4939 H       1  ZINC001122903793    0.0600
     46 H46       -10.3795    3.6966   58.0096 H       1  ZINC001122903793    0.0800
     47 H47        -9.4625    2.6363   56.9127 H       1  ZINC001122903793    0.0600
@<TRIPOS>BOND
     1     1     2    1
     2     1    29    1
     3     1    30    1
     4     1    31    1
     5     2     3    1
     6     2    26    1
     7     2     4    1
     8     4     5    1
     9     5     6    1
    10     5    32    1
    11     5    33    1
    12     6     7    1
    13     6    34    1
    14     6    35    1
    15     7     8    1
    16     7    26    1
    17     8    18    1
    18     8     9    2
    19     9    10    1
    20    10    11    2
    21    11    12    1
    22    11    18    1
    23    12    17    1
    24    12    13    2
    25    13    14    1
    26    13    15    1
    27    15    16    2
    28    16    17    1
    29    16    36    1
    30    18    19    1
    31    19    20    1
    32    19    37    1
    33    19    38    1
    34    20    21    1
    35    20    25    1
    36    20    22    1
    37    22    23    1
    38    22    39    1
    39    22    40    1
    40    23    24    1
    41    23    41    1
    42    23    42    1
    43    24    25    1
    44    24    43    1
    45    24    44    1
    46    26    27    1
    47    26    28    1
    48    28    45    1
    49    28    46    1
    50    28    47    1
@<TRIPOS>SUBSTRUCTURE
     1 ZINC001122903793        1 TEMP              0 ****  ****    0 ROOT


##########                                Name:    ZINC000863208514
##########                DOCK_Rotatable_Bonds:                   6
##########                         Heavy_Atoms:                  19
##########                    Molecular_Weight:             368.657
##########                DOCK_Rotatable_Bonds:                   6
##########                       Formal_Charge:           0.0100005
##########                     HBond_Acceptors:                   7
##########                        HBond_Donors:                   2
##########                         Heavy_Atoms:                  19
##########                          Grid_Score:          -26.892923
##########                     Grid_vdw_energy:          -26.839876
##########                      Grid_es_energy:           -0.053047
##########           Internal_energy_repulsive:            5.747369

@<TRIPOS>MOLECULE
ZINC000863208514
 31 31 1 0 0
SMALL
USER_CHARGES


@<TRIPOS>ATOM
      1 C1         -7.7820    1.4353   53.4970 C.3     1  ZINC000863208514    0.0900
      2 N2         -7.1942    0.4476   52.5886 N.am    1  ZINC000863208514   -0.6100
      3 C3         -7.8945   -0.8115   52.3233 C.3     1  ZINC000863208514    0.0700
      4 C4         -6.0091    0.6973   51.9972 C.2     1  ZINC000863208514    0.5100
      5 O5         -5.5232   -0.1197   51.2441 O.2     1  ZINC000863208514   -0.5400
      6 C6         -5.2880    1.9917   52.2718 C.3     1  ZINC000863208514    0.1100
      7 N7         -4.1333    2.1066   51.3775 N.am    1  ZINC000863208514   -0.6600
      8 C8         -3.1908    3.0414   51.6106 C.2     1  ZINC000863208514    0.5600
      9 S9         -3.3439    4.0958   52.9506 S.2     1  ZINC000863208514   -0.6000
     10 N10        -2.1277    3.1460   50.7887 N.am    1  ZINC000863208514   -0.6300
     11 C11        -2.0025    2.2834   49.6925 C.ar    1  ZINC000863208514    0.1200
     12 C12        -1.1849    1.1656   49.7773 C.ar    1  ZINC000863208514   -0.0300
     13 C13        -1.0633    0.3152   48.6937 C.ar    1  ZINC000863208514   -0.0200
     14 Cl14       -0.0410   -1.0838   48.7997 Cl      1  ZINC000863208514   -0.0300
     15 C15        -1.7564    0.5779   47.5246 C.ar    1  ZINC000863208514   -0.0600
     16 Br16       -1.5874   -0.5876   46.0451 Br      1  ZINC000863208514   -0.0100
     17 C17        -2.5731    1.6915   47.4366 C.ar    1  ZINC000863208514   -0.1100
     18 C18        -2.7021    2.5426   48.5185 C.ar    1  ZINC000863208514    0.1100
     19 F19        -3.4994    3.6298   48.4325 F       1  ZINC000863208514   -0.1200
     20 H20        -8.7331    1.0605   53.8751 H       1  ZINC000863208514    0.0800
     21 H21        -7.1031    1.6110   54.3314 H       1  ZINC000863208514    0.0700
     22 H22        -7.9472    2.3696   52.9602 H       1  ZINC000863208514    0.0700
     23 H23        -8.5556   -0.6858   51.4658 H       1  ZINC000863208514    0.0700
     24 H24        -7.1666   -1.5940   52.1092 H       1  ZINC000863208514    0.0800
     25 H25        -8.4825   -1.0914   53.1974 H       1  ZINC000863208514    0.0800
     26 H26        -5.9652    2.8284   52.1001 H       1  ZINC000863208514    0.1200
     27 H27        -4.9483    2.0058   53.3074 H       1  ZINC000863208514    0.1200
     28 H28        -4.0472    1.5100   50.6175 H       1  ZINC000863208514    0.4100
     29 H29        -1.4493    3.8188   50.9565 H       1  ZINC000863208514    0.4200
     30 H30        -0.6435    0.9600   50.6890 H       1  ZINC000863208514    0.1800
     31 H31        -3.1127    1.8942   46.5232 H       1  ZINC000863208514    0.1600
@<TRIPOS>BOND
     1     1     2    1
     2     1    20    1
     3     1    21    1
     4     1    22    1
     5     2     3    1
     6     2     4   am
     7     3    23    1
     8     3    24    1
     9     3    25    1
    10     4     5    2
    11     4     6    1
    12     6     7    1
    13     6    26    1
    14     6    27    1
    15     7     8   am
    16     7    28    1
    17     8     9    2
    18     8    10   am
    19    10    11    1
    20    10    29    1
    21    11    18   ar
    22    11    12   ar
    23    12    13   ar
    24    12    30    1
    25    13    14    1
    26    13    15   ar
    27    15    16    1
    28    15    17   ar
    29    17    18   ar
    30    17    31    1
    31    18    19    1
@<TRIPOS>SUBSTRUCTURE
     1 ZINC000863208514        1 TEMP              0 ****  ****    0 ROOT


##########                                Name:    ZINC000549381790
##########                DOCK_Rotatable_Bonds:                   7
##########                         Heavy_Atoms:                  23
##########                    Molecular_Weight:             337.846
##########                DOCK_Rotatable_Bonds:                   7
##########                       Formal_Charge:           0.0300006
##########                     HBond_Acceptors:                   5
##########                        HBond_Donors:                   0
##########                         Heavy_Atoms:                  23
##########                          Grid_Score:          -26.881254
##########                     Grid_vdw_energy:          -25.607016
##########                      Grid_es_energy:           -1.274239
##########           Internal_energy_repulsive:           86.688080

@<TRIPOS>MOLECULE
ZINC000549381790
 47 49 1 0 0
SMALL
USER_CHARGES


@<TRIPOS>ATOM
      1 C1         -7.8329    4.5316   54.2021 C.3     1  ZINC000549381790   -0.1400
      2 C2         -8.0068    3.0144   54.2939 C.3     1  ZINC000549381790    0.1500
      3 H3         -7.9176    2.6986   55.3334 H       1  ZINC000549381790    0.0700
      4 C4         -9.3859    2.6220   53.7545 C.3     1  ZINC000549381790   -0.1300
      5 C5         -9.5003    1.0962   53.7193 C.3     1  ZINC000549381790   -0.1200
      6 C6         -8.4343    0.5246   52.7817 C.3     1  ZINC000549381790   -0.1400
      7 C7         -7.0445    0.8932   53.3101 C.3     1  ZINC000549381790    0.1000
      8 N8         -6.9739    2.3505   53.4872 N.am    1  ZINC000549381790   -0.6100
      9 C9         -5.9836    3.0644   52.9162 C.2     1  ZINC000549381790    0.5200
     10 O10        -5.9364    4.2666   53.0698 O.2     1  ZINC000549381790   -0.5000
     11 C11        -4.9349    2.3690   52.0868 C.3     1  ZINC000549381790    0.0400
     12 O12        -4.0653    3.3423   51.5049 O.3     1  ZINC000549381790   -0.2800
     13 C13        -3.0485    2.8773   50.7308 C.ar    1  ZINC000549381790    0.1100
     14 C14        -1.9430    2.2840   51.3215 C.ar    1  ZINC000549381790   -0.1700
     15 C15        -0.9097    1.8109   50.5355 C.ar    1  ZINC000549381790   -0.1600
     16 C16        -0.9776    1.9296   49.1558 C.ar    1  ZINC000549381790    0.1100
     17 O17         0.0396    1.4640   48.3822 O.3     1  ZINC000549381790   -0.3000
     18 C18         0.4286    0.1022   48.5729 C.3     1  ZINC000549381790    0.0900
     19 C19        -0.0811   -0.7423   47.4033 C.3     1  ZINC000549381790   -0.1600
     20 C20        -0.6230   -2.1370   47.7226 C.3     1  ZINC000549381790   -0.1700
     21 C21        -1.5850   -1.0138   47.3306 C.3     1  ZINC000549381790   -0.1700
     22 C22        -2.0841    2.5235   48.5641 C.ar    1  ZINC000549381790   -0.0300
     23 Cl23       -2.1698    2.6719   46.8365 Cl      1  ZINC000549381790   -0.0400
     24 C24        -3.1199    2.9913   49.3502 C.ar    1  ZINC000549381790   -0.1000
     25 H25        -7.8220    4.8334   53.1548 H       1  ZINC000549381790    0.0600
     26 H26        -8.6602    5.0238   54.7134 H       1  ZINC000549381790    0.0500
     27 H27        -6.8926    4.8188   54.6728 H       1  ZINC000549381790    0.0800
     28 H28       -10.1602    3.0300   54.4042 H       1  ZINC000549381790    0.0800
     29 H29        -9.5091    3.0194   52.7471 H       1  ZINC000549381790    0.0700
     30 H30        -9.3525    0.6978   54.7231 H       1  ZINC000549381790    0.0700
     31 H31       -10.4896    0.8144   53.3591 H       1  ZINC000549381790    0.0700
     32 H32        -8.5313   -0.5602   52.7390 H       1  ZINC000549381790    0.0800
     33 H33        -8.5664    0.9418   51.7835 H       1  ZINC000549381790    0.0700
     34 H34        -6.8759    0.4022   54.2685 H       1  ZINC000549381790    0.0800
     35 H35        -6.2856    0.5747   52.5955 H       1  ZINC000549381790    0.0800
     36 H36        -4.3561    1.6978   52.7213 H       1  ZINC000549381790    0.0900
     37 H37        -5.4185    1.7949   51.2966 H       1  ZINC000549381790    0.0900
     38 H38        -1.8894    2.1919   52.3962 H       1  ZINC000549381790    0.1400
     39 H39        -0.0489    1.3490   50.9959 H       1  ZINC000549381790    0.1400
     40 H40         1.5156    0.0381   48.6208 H       1  ZINC000549381790    0.0700
     41 H41         0.0012   -0.2708   49.5037 H       1  ZINC000549381790    0.0700
     42 H42         0.4532   -0.6128   46.4621 H       1  ZINC000549381790    0.1200
     43 H43        -0.4453   -2.9255   46.9913 H       1  ZINC000549381790    0.1000
     44 H44        -0.6164   -2.4529   48.7658 H       1  ZINC000549381790    0.1000
     45 H45        -2.2114   -0.5906   48.1159 H       1  ZINC000549381790    0.1000
     46 H46        -2.0402   -1.0633   46.3414 H       1  ZINC000549381790    0.1000
     47 H47        -3.9809    3.4534   48.8903 H       1  ZINC000549381790    0.1500
@<TRIPOS>BOND
     1     1     2    1
     2     1    25    1
     3     1    26    1
     4     1    27    1
     5     2     3    1
     6     2     8    1
     7     2     4    1
     8     4     5    1
     9     4    28    1
    10     4    29    1
    11     5     6    1
    12     5    30    1
    13     5    31    1
    14     6     7    1
    15     6    32    1
    16     6    33    1
    17     7     8    1
    18     7    34    1
    19     7    35    1
    20     8     9   am
    21     9    10    2
    22     9    11    1
    23    11    12    1
    24    11    36    1
    25    11    37    1
    26    12    13    1
    27    13    24   ar
    28    13    14   ar
    29    14    15   ar
    30    14    38    1
    31    15    16   ar
    32    15    39    1
    33    16    17    1
    34    16    22   ar
    35    17    18    1
    36    18    19    1
    37    18    40    1
    38    18    41    1
    39    19    21    1
    40    19    20    1
    41    19    42    1
    42    20    21    1
    43    20    43    1
    44    20    44    1
    45    21    45    1
    46    21    46    1
    47    22    23    1
    48    22    24   ar
    49    24    47    1
@<TRIPOS>SUBSTRUCTURE
     1 ZINC000549381790        1 TEMP              0 ****  ****    0 ROOT


##########                                Name:    ZINC001193456967
##########                DOCK_Rotatable_Bonds:                   3
##########                         Heavy_Atoms:                  27
##########                    Molecular_Weight:             392.451
##########                DOCK_Rotatable_Bonds:                   3
##########                       Formal_Charge:           0.0300002
##########                     HBond_Acceptors:                   8
##########                        HBond_Donors:                   0
##########                         Heavy_Atoms:                  27
##########                          Grid_Score:          -26.873451
##########                     Grid_vdw_energy:          -25.843729
##########                      Grid_es_energy:           -1.029722
##########           Internal_energy_repulsive:           37.861748

@<TRIPOS>MOLECULE
ZINC001193456967
 48 50 1 0 0
SMALL
USER_CHARGES


@<TRIPOS>ATOM
      1 C1          3.7731    0.1405   41.8252 C.3     1  ZINC001193456967   -0.1400
      2 C2          2.4764    0.4187   42.5407 C.ar    1  ZINC001193456967    0.0300
      3 C3          1.2749    0.2874   41.8700 C.ar    1  ZINC001193456967   -0.1400
      4 C4          0.0853    0.5427   42.5265 C.ar    1  ZINC001193456967    0.0300
      5 C5          0.0973    0.9288   43.8535 C.ar    1  ZINC001193456967   -0.6900
      6 S6         -1.4188    1.2547   44.6900 S.o2    1  ZINC001193456967    2.7100
      7 O7         -1.7168    2.6251   44.4614 O.2     1  ZINC001193456967   -0.9300
      8 O8         -2.3038    0.1985   44.3427 O.2     1  ZINC001193456967   -0.9400
      9 N9         -1.1255    1.1042   46.3129 N.am    1  ZINC001193456967   -1.0000
     10 C10        -0.6445   -0.1139   46.9899 C.3     1  ZINC001193456967    0.1100
     11 C11        -1.1148    0.0365   48.4581 C.3     1  ZINC001193456967   -0.1200
     12 C12        -0.9330    1.5600   48.6889 C.3     1  ZINC001193456967   -0.0500
     13 H13         0.1007    1.7903   48.9471 H       1  ZINC001193456967    0.1000
     14 C14        -1.8706    2.0525   49.7610 C.ar    1  ZINC001193456967   -0.0800
     15 C15        -1.4575    3.0347   50.6419 C.ar    1  ZINC001193456967   -0.0800
     16 C16        -2.3164    3.4870   51.6255 C.ar    1  ZINC001193456967   -0.1500
     17 C17        -3.5912    2.9565   51.7283 C.ar    1  ZINC001193456967    0.1000
     18 F18        -4.4318    3.3983   52.6892 F       1  ZINC001193456967   -0.1400
     19 C19        -4.0039    1.9731   50.8453 C.ar    1  ZINC001193456967   -0.1500
     20 C20        -3.1449    1.5258   49.8594 C.ar    1  ZINC001193456967   -0.0800
     21 C21        -1.2953    2.1653   47.3163 C.3     1  ZINC001193456967    0.1900
     22 C22        -0.3662    3.3401   47.0041 C.3     1  ZINC001193456967   -0.1800
     23 C23        -2.7509    2.6369   47.3235 C.3     1  ZINC001193456967   -0.1800
     24 C24         1.2989    1.0589   44.5248 C.ar    1  ZINC001193456967    0.0400
     25 C25         2.4880    0.7999   43.8696 C.ar    1  ZINC001193456967   -0.0600
     26 N26         3.7746    0.9391   44.5882 N.pl3   1  ZINC001193456967    0.0200
     27 O27         4.6823    0.1571   44.3691 O.2     1  ZINC001193456967   -0.1400
     28 O28         3.9255    1.8357   45.3988 O.2     1  ZINC001193456967   -0.1500
     29 H29         4.0817   -0.8869   42.0185 H       1  ZINC001193456967    0.1100
     30 H30         3.6344    0.2825   40.7534 H       1  ZINC001193456967    0.0900
     31 H31         4.5412    0.8246   42.1859 H       1  ZINC001193456967    0.0800
     32 H32         1.2656   -0.0143   40.8330 H       1  ZINC001193456967    0.1600
     33 H33        -0.8535    0.4407   42.0022 H       1  ZINC001193456967    0.1600
     34 H34        -1.0900   -1.0001   46.5378 H       1  ZINC001193456967    0.0900
     35 H35         0.4431   -0.1694   46.9436 H       1  ZINC001193456967    0.0700
     36 H36        -2.1602   -0.2528   48.5652 H       1  ZINC001193456967    0.0900
     37 H37        -0.4806   -0.5392   49.1324 H       1  ZINC001193456967    0.0900
     38 H38        -0.4631    3.4483   50.5616 H       1  ZINC001193456967    0.1400
     39 H39        -1.9933    4.2538   52.3140 H       1  ZINC001193456967    0.1400
     40 H40        -4.9979    1.5584   50.9247 H       1  ZINC001193456967    0.1400
     41 H41        -3.4667    0.7590   49.1703 H       1  ZINC001193456967    0.1300
     42 H42         0.6661    2.9909   46.9819 H       1  ZINC001193456967    0.0700
     43 H43        -0.6280    3.7623   46.0338 H       1  ZINC001193456967    0.0600
     44 H44        -0.4751    4.1039   47.7740 H       1  ZINC001193456967    0.0800
     45 H45        -2.9098    3.3124   48.1641 H       1  ZINC001193456967    0.0800
     46 H46        -2.9682    3.1590   46.3918 H       1  ZINC001193456967    0.0900
     47 H47        -3.4114    1.7752   47.4199 H       1  ZINC001193456967    0.0700
     48 H48         1.3083    1.3602   45.5619 H       1  ZINC001193456967    0.1600
@<TRIPOS>BOND
     1     1     2    1
     2     1    29    1
     3     1    30    1
     4     1    31    1
     5     2    25   ar
     6     2     3   ar
     7     3     4   ar
     8     3    32    1
     9     4     5   ar
    10     4    33    1
    11     5     6    1
    12     5    24   ar
    13     6     7    2
    14     6     8    2
    15     6     9   am
    16     9    21    1
    17     9    10    1
    18    10    11    1
    19    10    34    1
    20    10    35    1
    21    11    12    1
    22    11    36    1
    23    11    37    1
    24    12    13    1
    25    12    14    1
    26    12    21    1
    27    14    20   ar
    28    14    15   ar
    29    15    16   ar
    30    15    38    1
    31    16    17   ar
    32    16    39    1
    33    17    18    1
    34    17    19   ar
    35    19    20   ar
    36    19    40    1
    37    20    41    1
    38    21    22    1
    39    21    23    1
    40    22    42    1
    41    22    43    1
    42    22    44    1
    43    23    45    1
    44    23    46    1
    45    23    47    1
    46    24    25   ar
    47    24    48    1
    48    25    26    1
    49    26    27    2
    50    26    28    2
@<TRIPOS>SUBSTRUCTURE
     1 ZINC001193456967        1 TEMP              0 ****  ****    0 ROOT


##########                                Name:    ZINC000444542200
##########                DOCK_Rotatable_Bonds:                   8
##########                         Heavy_Atoms:                  28
##########                    Molecular_Weight:             404.337
##########                DOCK_Rotatable_Bonds:                   8
##########                       Formal_Charge:           0.0200001
##########                     HBond_Acceptors:                  10
##########                        HBond_Donors:                   1
##########                         Heavy_Atoms:                  28
##########                          Grid_Score:          -26.870672
##########                     Grid_vdw_energy:          -25.163673
##########                      Grid_es_energy:           -1.706998
##########           Internal_energy_repulsive:           22.068968

@<TRIPOS>MOLECULE
ZINC000444542200
 45 46 1 0 0
SMALL
USER_CHARGES


@<TRIPOS>ATOM
      1 C1         -2.7075    2.8933   51.4698 C.3     1  ZINC000444542200    0.0300
      2 O2         -1.8441    1.8114   51.1147 O.3     1  ZINC000444542200   -0.3100
      3 C3         -1.6782    1.5641   49.7888 C.ar    1  ZINC000444542200    0.1800
      4 C4         -0.7705    0.6028   49.3712 C.ar    1  ZINC000444542200   -0.1700
      5 C5         -0.6015    0.3501   48.0168 C.ar    1  ZINC000444542200    0.2300
      6 N6          0.3141   -0.6204   47.5949 N.am    1  ZINC000444542200   -0.5800
      7 C7          0.0818   -2.0323   47.9090 C.3     1  ZINC000444542200    0.0700
      8 C8          1.4096   -0.2561   46.8994 C.2     1  ZINC000444542200    0.7100
      9 O9          2.2053   -1.0993   46.5329 O.2     1  ZINC000444542200   -0.5500
     10 N10         1.6233    1.0428   46.6105 N.am    1  ZINC000444542200   -0.7300
     11 C11         2.8132    1.4386   45.8530 C.3     1  ZINC000444542200    0.1700
     12 H12         3.6938    0.9636   46.2854 H       1  ZINC000444542200    0.1500
     13 C13         2.6622    1.0050   44.4177 C.ar    1  ZINC000444542200   -0.1300
     14 C14         1.4100    0.9730   43.8335 C.ar    1  ZINC000444542200   -0.0800
     15 C15         1.2698    0.5753   42.5168 C.ar    1  ZINC000444542200   -0.0900
     16 C16         2.3815    0.2090   41.7819 C.ar    1  ZINC000444542200   -0.1100
     17 C17         3.6369    0.2399   42.3639 C.ar    1  ZINC000444542200    0.0800
     18 F18         4.7240   -0.1180   41.6462 F       1  ZINC000444542200   -0.1200
     19 C19         3.7782    0.6442   43.6827 C.ar    1  ZINC000444542200    0.1000
     20 F20         5.0025    0.6752   44.2530 F       1  ZINC000444542200   -0.1100
     21 C21         2.9730    2.9591   45.9123 C.3     1  ZINC000444542200    0.4400
     22 F22         1.9768    3.5634   45.1381 F       1  ZINC000444542200   -0.1600
     23 F23         2.8576    3.3887   47.2388 F       1  ZINC000444542200   -0.1700
     24 F24         4.2309    3.3156   45.4145 F       1  ZINC000444542200   -0.1800
     25 C25        -1.3413    1.0602   47.0814 C.ar    1  ZINC000444542200   -0.1900
     26 C26        -2.2486    2.0213   47.5002 C.ar    1  ZINC000444542200    0.1800
     27 O27        -2.9730    2.7165   46.5844 O.3     1  ZINC000444542200   -0.3100
     28 C28        -2.6496    2.5088   45.2082 C.3     1  ZINC000444542200    0.0300
     29 C29        -2.4209    2.2695   48.8537 C.ar    1  ZINC000444542200   -0.2900
     30 H30        -2.3220    3.8202   51.0451 H       1  ZINC000444542200    0.0600
     31 H31        -3.7075    2.7033   51.0800 H       1  ZINC000444542200    0.0600
     32 H32        -2.7515    2.9817   52.5554 H       1  ZINC000444542200    0.1000
     33 H33        -0.1950    0.0509   50.0997 H       1  ZINC000444542200    0.1300
     34 H34        -0.4973   -2.4922   47.1081 H       1  ZINC000444542200    0.0700
     35 H35         1.0387   -2.5451   48.0061 H       1  ZINC000444542200    0.0700
     36 H36        -0.4689   -2.1101   48.8464 H       1  ZINC000444542200    0.0900
     37 H37         0.9892    1.7157   46.9040 H       1  ZINC000444542200    0.4100
     38 H38         0.5401    1.2586   44.4062 H       1  ZINC000444542200    0.1400
     39 H39         0.2905    0.5507   42.0622 H       1  ZINC000444542200    0.1500
     40 H40         2.2706   -0.1018   40.7535 H       1  ZINC000444542200    0.1500
     41 H41        -1.2099    0.8643   46.0274 H       1  ZINC000444542200    0.1400
     42 H42        -2.7907    1.4576   44.9564 H       1  ZINC000444542200    0.0600
     43 H43        -3.3008    3.1220   44.5853 H       1  ZINC000444542200    0.1000
     44 H44        -1.6106    2.7880   45.0329 H       1  ZINC000444542200    0.0600
     45 H45        -3.1278    3.0183   49.1795 H       1  ZINC000444542200    0.1400
@<TRIPOS>BOND
     1     1     2    1
     2     1    30    1
     3     1    31    1
     4     1    32    1
     5     2     3    1
     6     3    29   ar
     7     3     4   ar
     8     4     5   ar
     9     4    33    1
    10     5     6    1
    11     5    25   ar
    12     6     7    1
    13     6     8   am
    14     7    34    1
    15     7    35    1
    16     7    36    1
    17     8     9    2
    18     8    10   am
    19    10    11    1
    20    10    37    1
    21    11    12    1
    22    11    13    1
    23    11    21    1
    24    13    19   ar
    25    13    14   ar
    26    14    15   ar
    27    14    38    1
    28    15    16   ar
    29    15    39    1
    30    16    17   ar
    31    16    40    1
    32    17    18    1
    33    17    19   ar
    34    19    20    1
    35    21    22    1
    36    21    23    1
    37    21    24    1
    38    25    26   ar
    39    25    41    1
    40    26    27    1
    41    26    29   ar
    42    27    28    1
    43    28    42    1
    44    28    43    1
    45    28    44    1
    46    29    45    1
@<TRIPOS>SUBSTRUCTURE
     1 ZINC000444542200        1 TEMP              0 ****  ****    0 ROOT


##########                                Name:    ZINC000763800048
##########                DOCK_Rotatable_Bonds:                   8
##########                         Heavy_Atoms:                  23
##########                    Molecular_Weight:             329.783
##########                DOCK_Rotatable_Bonds:                   8
##########                       Formal_Charge:           0.0199994
##########                     HBond_Acceptors:                   5
##########                        HBond_Donors:                   1
##########                         Heavy_Atoms:                  23
##########                          Grid_Score:          -26.832432
##########                     Grid_vdw_energy:          -24.899174
##########                      Grid_es_energy:           -1.933258
##########           Internal_energy_repulsive:            4.483252

@<TRIPOS>MOLECULE
ZINC000763800048
 39 40 1 0 0
SMALL
USER_CHARGES


@<TRIPOS>ATOM
      1 C1        -15.1847    1.0728   62.6752 C.3     1  ZINC000763800048    0.0400
      2 O2        -14.7571   -0.0657   61.8820 O.3     1  ZINC000763800048   -0.3600
      3 C3        -14.7474   -1.2626   62.4896 C.2     1  ZINC000763800048    0.4600
      4 O4        -15.0840   -1.3557   63.6462 O.2     1  ZINC000763800048   -0.4900
      5 C5        -14.3165   -2.4901   61.7290 C.3     1  ZINC000763800048   -0.0700
      6 C6        -14.6107   -2.3018   60.2630 C.ar    1  ZINC000763800048   -0.0600
      7 C7        -15.8332   -2.6921   59.7484 C.ar    1  ZINC000763800048   -0.1200
      8 C8        -16.1073   -2.5210   58.4036 C.ar    1  ZINC000763800048   -0.1000
      9 C9        -15.1603   -1.9590   57.5704 C.ar    1  ZINC000763800048   -0.1100
     10 C10       -13.9312   -1.5653   58.0844 C.ar    1  ZINC000763800048    0.1500
     11 N11       -12.9701   -0.9958   57.2436 N.am    1  ZINC000763800048   -0.6700
     12 C12       -12.2601   -1.7767   56.4056 C.2     1  ZINC000763800048    0.5500
     13 O13       -12.4555   -2.9778   56.3806 O.2     1  ZINC000763800048   -0.5200
     14 C14       -11.2542   -1.1806   55.5256 C.2     1  ZINC000763800048   -0.2100
     15 C15       -10.3595   -1.9676   54.8938 C.2     1  ZINC000763800048   -0.0100
     16 C16        -9.3491   -1.3683   54.0076 C.ar    1  ZINC000763800048   -0.0800
     17 C17        -8.3838   -0.5004   54.5283 C.ar    1  ZINC000763800048   -0.0900
     18 C18        -7.4404    0.0572   53.6923 C.ar    1  ZINC000763800048   -0.1100
     19 C19        -7.4473   -0.2396   52.3389 C.ar    1  ZINC000763800048   -0.0200
     20 Cl20       -6.2557    0.4679   51.2934 Cl      1  ZINC000763800048   -0.0600
     21 C21        -8.4003   -1.0987   51.8162 C.ar    1  ZINC000763800048   -0.1100
     22 C22        -9.3461   -1.6683   52.6414 C.ar    1  ZINC000763800048   -0.0800
     23 C23       -13.6610   -1.7341   59.4362 C.ar    1  ZINC000763800048   -0.1300
     24 H24       -15.1459    1.9755   62.0656 H       1  ZINC000763800048    0.1000
     25 H25       -16.2058    0.9117   63.0211 H       1  ZINC000763800048    0.0600
     26 H26       -14.5236    1.1860   63.5344 H       1  ZINC000763800048    0.0600
     27 H27       -13.2467   -2.6465   61.8676 H       1  ZINC000763800048    0.1200
     28 H28       -14.8617   -3.3577   62.1004 H       1  ZINC000763800048    0.1200
     29 H29       -16.5755   -3.1319   60.3978 H       1  ZINC000763800048    0.1200
     30 H30       -17.0629   -2.8276   58.0045 H       1  ZINC000763800048    0.1300
     31 H31       -15.3749   -1.8259   56.5204 H       1  ZINC000763800048    0.1400
     32 H32       -12.8144   -0.0385   57.2636 H       1  ZINC000763800048    0.4100
     33 H33       -11.2283   -0.1106   55.3820 H       1  ZINC000763800048    0.1300
     34 H34       -10.3846   -3.0376   55.0383 H       1  ZINC000763800048    0.1400
     35 H35        -8.3776   -0.2677   55.5830 H       1  ZINC000763800048    0.1400
     36 H36        -6.6944    0.7275   54.0931 H       1  ZINC000763800048    0.1400
     37 H37        -8.3996   -1.3256   50.7603 H       1  ZINC000763800048    0.1400
     38 H38       -10.0882   -2.3380   52.2326 H       1  ZINC000763800048    0.1400
     39 H39       -12.7066   -1.4287   59.8390 H       1  ZINC000763800048    0.1300
@<TRIPOS>BOND
     1     1     2    1
     2     1    24    1
     3     1    25    1
     4     1    26    1
     5     2     3    1
     6     3     4    2
     7     3     5    1
     8     5     6    1
     9     5    27    1
    10     5    28    1
    11     6    23   ar
    12     6     7   ar
    13     7     8   ar
    14     7    29    1
    15     8     9   ar
    16     8    30    1
    17     9    10   ar
    18     9    31    1
    19    10    11    1
    20    10    23   ar
    21    11    12   am
    22    11    32    1
    23    12    13    2
    24    12    14    1
    25    14    15    2
    26    14    33    1
    27    15    16    1
    28    15    34    1
    29    16    22   ar
    30    16    17   ar
    31    17    18   ar
    32    17    35    1
    33    18    19   ar
    34    18    36    1
    35    19    20    1
    36    19    21   ar
    37    21    22   ar
    38    21    37    1
    39    22    38    1
    40    23    39    1
@<TRIPOS>SUBSTRUCTURE
     1 ZINC000763800048        1 TEMP              0 ****  ****    0 ROOT


##########                                Name:    ZINC000338927927
##########                DOCK_Rotatable_Bonds:                   9
##########                         Heavy_Atoms:                  23
##########                    Molecular_Weight:             336.286
##########                DOCK_Rotatable_Bonds:                   9
##########                       Formal_Charge:         -0.00999999
##########                     HBond_Acceptors:                   9
##########                        HBond_Donors:                   2
##########                         Heavy_Atoms:                  23
##########                          Grid_Score:          -26.806416
##########                     Grid_vdw_energy:          -26.580252
##########                      Grid_es_energy:           -0.226163
##########           Internal_energy_repulsive:           11.107324

@<TRIPOS>MOLECULE
ZINC000338927927
 39 39 1 0 0
SMALL
USER_CHARGES


@<TRIPOS>ATOM
      1 C1          1.2415    0.7445   47.0747 C.3     1  <0>        -0.1600
      2 C2         -0.0498    0.7907   47.8939 C.3     1  <0>        -0.1100
      3 C3         -0.9150    1.9589   47.4168 C.3     1  <0>        -0.1000
      4 H4         -0.3326    2.8797   47.4503 H       1  <0>         0.1400
      5 C5         -2.1181    2.0924   48.3144 C.2     1  <0>         0.5200
      6 O6         -3.2344    2.0564   47.8417 O.2     1  <0>        -0.4700
      7 N7         -1.9535    2.2520   49.6426 N.am    1  <0>        -0.6700
      8 C8         -3.0705    2.3760   50.4761 C.ar    1  <0>         0.2200
      9 C9         -3.2206    3.5029   51.2735 C.ar    1  <0>        -0.2300
     10 C10        -4.3254    3.6262   52.0983 C.ar    1  <0>         0.1700
     11 F11        -4.4694    4.7234   52.8733 F       1  <0>        -0.1300
     12 C12        -5.2826    2.6277   52.1297 C.ar    1  <0>        -0.2500
     13 C13        -5.1363    1.4986   51.3333 C.ar    1  <0>         0.2600
     14 N14        -6.1026    0.4906   51.3656 N.pl3   1  <0>        -0.7400
     15 C15        -7.0155    0.3873   52.5068 C.3     1  <0>         0.0800
     16 C16        -7.8825   -0.8640   52.3546 C.3     1  <0>         0.4500
     17 F17        -7.0814   -1.9415   51.9616 F       1  <0>        -0.1800
     18 F18        -8.4941   -1.1593   53.5777 F       1  <0>        -0.1700
     19 F19        -8.8650   -0.6354   51.3851 F       1  <0>        -0.1800
     20 C20        -4.0319    1.3755   50.5019 C.ar    1  <0>        -0.2000
     21 C21        -1.3692    1.7030   46.0028 C.2     1  <0>         0.4600
     22 O22        -1.5832    2.6313   45.2597 O.2     1  <0>        -0.4600
     23 O23        -1.5359    0.4438   45.5690 O.3     1  <0>        -0.3500
     24 C24        -1.9685    0.2722   44.1936 C.3     1  <0>         0.0300
     25 H25         1.7882    1.6784   47.2052 H       1  <0>         0.0600
     26 H26         1.8579   -0.0878   47.4146 H       1  <0>         0.0600
     27 H27         0.9986    0.6099   46.0207 H       1  <0>         0.0800
     28 H28        -0.5964   -0.1433   47.7635 H       1  <0>         0.0800
     29 H29         0.1932    0.9253   48.9479 H       1  <0>         0.0800
     30 H30        -1.0607    2.2807   50.0206 H       1  <0>         0.4200
     31 H31        -2.4746    4.2834   51.2506 H       1  <0>         0.1400
     32 H32        -6.1439    2.7259   52.7739 H       1  <0>         0.1400
     33 H33        -6.1692   -0.1409   50.6325 H       1  <0>         0.4100
     34 H34        -6.4382    0.3193   53.4288 H       1  <0>         0.1100
     35 H35        -7.6541    1.2698   52.5422 H       1  <0>         0.1100
     36 H36        -3.9166    0.4986   49.8823 H       1  <0>         0.1500
     37 H37        -2.0641   -0.7909   43.9726 H       1  <0>         0.1000
     38 H38        -2.9326    0.7608   44.0523 H       1  <0>         0.0600
     39 H39        -1.2336    0.7179   43.5233 H       1  <0>         0.0600
@<TRIPOS>BOND
     1     1     2    1
     2     1    25    1
     3     1    26    1
     4     1    27    1
     5     2     3    1
     6     2    28    1
     7     2    29    1
     8     3     4    1
     9     3     5    1
    10     3    21    1
    11     5     6    2
    12     5     7   am
    13     7     8    1
    14     7    30    1
    15     8    20   ar
    16     8     9   ar
    17     9    10   ar
    18     9    31    1
    19    10    11    1
    20    10    12   ar
    21    12    13   ar
    22    12    32    1
    23    13    14    1
    24    13    20   ar
    25    14    15    1
    26    14    33    1
    27    15    16    1
    28    15    34    1
    29    15    35    1
    30    16    17    1
    31    16    18    1
    32    16    19    1
    33    20    36    1
    34    21    22    2
    35    21    23    1
    36    23    24    1
    37    24    37    1
    38    24    38    1
    39    24    39    1
@<TRIPOS>SUBSTRUCTURE
     1 <0>         1 TEMP              0 ****  ****    0 ROOT


##########                                Name:    ZINC000426607143
##########                DOCK_Rotatable_Bonds:                   3
##########                         Heavy_Atoms:                  25
##########                    Molecular_Weight:             419.302
##########                DOCK_Rotatable_Bonds:                   3
##########                       Formal_Charge:         1.49012e-07
##########                     HBond_Acceptors:                   7
##########                        HBond_Donors:                   0
##########                         Heavy_Atoms:                  25
##########                          Grid_Score:          -26.795479
##########                     Grid_vdw_energy:          -27.535736
##########                      Grid_es_energy:            0.740257
##########           Internal_energy_repulsive:           12.650419

@<TRIPOS>MOLECULE
ZINC000426607143
 40 43 1 0 0
SMALL
USER_CHARGES


@<TRIPOS>ATOM
      1 C1         -6.9670    3.2936   54.5294 C.3     1  ZINC000426607143   -0.0900
      2 C2         -6.4599    2.3725   53.4498 C.2     1  ZINC000426607143    0.1600
      3 N3         -5.5461    2.7493   52.6088 N.2     1  ZINC000426607143   -0.4600
      4 S4         -5.2484    1.4488   51.5627 S.3     1  ZINC000426607143    0.2900
      5 C5         -6.3861    0.3783   52.2832 C.2     1  ZINC000426607143   -0.1300
      6 C6         -6.6954   -1.0375   51.8695 C.3     1  ZINC000426607143   -0.0800
      7 C7         -6.9443    1.0786   53.3111 C.2     1  ZINC000426607143   -0.1200
      8 C8         -7.9870    0.5101   54.1994 C.2     1  ZINC000426607143    0.2500
      9 N9         -8.1412    0.7589   55.4745 N.2     1  ZINC000426607143   -0.3700
     10 O10        -9.0868    0.1359   55.9092 O.3     1  ZINC000426607143    0.0900
     11 C11        -9.6443   -0.5896   54.9347 C.2     1  ZINC000426607143    0.2000
     12 C12       -10.8392   -1.4982   55.0671 C.3     1  ZINC000426607143   -0.0300
     13 H13       -11.4679   -1.4320   54.1793 H       1  ZINC000426607143    0.1600
     14 C14       -10.3858   -2.9578   55.3016 C.3     1  ZINC000426607143   -0.1200
     15 C15       -11.4633   -3.4685   56.2837 C.3     1  ZINC000426607143    0.1000
     16 N16       -11.9638   -2.2729   56.9723 N.am    1  ZINC000426607143   -0.5800
     17 C17       -12.6923   -2.2965   58.1670 C.ar    1  ZINC000426607143    0.1700
     18 C18       -14.0679   -2.4805   58.1395 C.ar    1  ZINC000426607143   -0.1000
     19 C19       -14.7844   -2.5034   59.3205 C.ar    1  ZINC000426607143   -0.1000
     20 C20       -14.1331   -2.3427   60.5295 C.ar    1  ZINC000426607143   -0.1000
     21 C21       -12.7628   -2.1592   60.5611 C.ar    1  ZINC000426607143   -0.0900
     22 C22       -12.0395   -2.1415   59.3841 C.ar    1  ZINC000426607143   -0.0800
     23 Br23      -10.1657   -1.8904   59.4280 Br      1  ZINC000426607143   -0.0400
     24 C24       -11.6343   -1.1500   56.3062 C.2     1  ZINC000426607143    0.5300
     25 O25       -11.9290   -0.0254   56.6520 O.2     1  ZINC000426607143   -0.4900
     26 N26        -8.9603   -0.3584   53.8419 N.2     1  ZINC000426607143   -0.4600
     27 H27        -6.3576    3.1737   55.4251 H       1  ZINC000426607143    0.0900
     28 H28        -6.9066    4.3258   54.1844 H       1  ZINC000426607143    0.0800
     29 H29        -8.0036    3.0475   54.7597 H       1  ZINC000426607143    0.1100
     30 H30        -6.0768   -1.3095   51.0142 H       1  ZINC000426607143    0.0800
     31 H31        -6.4853   -1.7124   52.6992 H       1  ZINC000426607143    0.0900
     32 H32        -7.7477   -1.1143   51.5960 H       1  ZINC000426607143    0.0900
     33 H33       -10.4046   -3.5263   54.3718 H       1  ZINC000426607143    0.1100
     34 H34        -9.3960   -2.9904   55.7571 H       1  ZINC000426607143    0.1000
     35 H35       -12.2714   -3.9550   55.7373 H       1  ZINC000426607143    0.0900
     36 H36       -11.0222   -4.1602   57.0013 H       1  ZINC000426607143    0.0900
     37 H37       -14.5777   -2.6054   57.1956 H       1  ZINC000426607143    0.1400
     38 H38       -15.8546   -2.6465   59.2994 H       1  ZINC000426607143    0.1400
     39 H39       -14.6959   -2.3603   61.4511 H       1  ZINC000426607143    0.1400
     40 H40       -12.2570   -2.0340   61.5071 H       1  ZINC000426607143    0.1400
@<TRIPOS>BOND
     1     1     2    1
     2     1    27    1
     3     1    28    1
     4     1    29    1
     5     2     7    1
     6     2     3    2
     7     3     4    1
     8     4     5    1
     9     5     6    1
    10     5     7    2
    11     6    30    1
    12     6    31    1
    13     6    32    1
    14     7     8    1
    15     8    26    1
    16     8     9    2
    17     9    10    1
    18    10    11    1
    19    11    12    1
    20    11    26    2
    21    12    13    1
    22    12    24    1
    23    12    14    1
    24    14    15    1
    25    14    33    1
    26    14    34    1
    27    15    16    1
    28    15    35    1
    29    15    36    1
    30    16    17    1
    31    16    24   am
    32    17    22   ar
    33    17    18   ar
    34    18    19   ar
    35    18    37    1
    36    19    20   ar
    37    19    38    1
    38    20    21   ar
    39    20    39    1
    40    21    22   ar
    41    21    40    1
    42    22    23    1
    43    24    25    2
@<TRIPOS>SUBSTRUCTURE
     1 ZINC000426607143        1 TEMP              0 ****  ****    0 ROOT


##########                                Name:    ZINC000446721380
##########                DOCK_Rotatable_Bonds:                   8
##########                         Heavy_Atoms:                  26
##########                    Molecular_Weight:             419.318
##########                DOCK_Rotatable_Bonds:                   8
##########                       Formal_Charge:           0.0199992
##########                     HBond_Acceptors:                   5
##########                        HBond_Donors:                   2
##########                         Heavy_Atoms:                  26
##########                          Grid_Score:          -26.793686
##########                     Grid_vdw_energy:          -25.572111
##########                      Grid_es_energy:           -1.221576
##########           Internal_energy_repulsive:          163.459320

@<TRIPOS>MOLECULE
ZINC000446721380
 49 51 1 0 0
SMALL
USER_CHARGES


@<TRIPOS>ATOM
      1 C1          1.4143    0.5264   50.8017 C.3     1  ZINC000446721380   -0.1200
      2 C2          0.0946    1.2539   50.7881 C.ar    1  ZINC000446721380   -0.0300
      3 C3         -0.2740    2.0361   51.8666 C.ar    1  ZINC000446721380   -0.1600
      4 C4         -1.4844    2.7049   51.8571 C.ar    1  ZINC000446721380   -0.0500
      5 C5         -2.3282    2.5928   50.7694 C.ar    1  ZINC000446721380   -0.1500
      6 C6         -3.6468    3.3223   50.7594 C.3     1  ZINC000446721380    0.1900
      7 N7         -4.5468    2.7176   51.7444 N.am    1  ZINC000446721380   -0.7300
      8 C8         -4.9254    3.4190   52.8313 C.2     1  ZINC000446721380    0.7100
      9 O9         -4.5212    4.5541   52.9935 O.2     1  ZINC000446721380   -0.5700
     10 N10        -5.7522    2.8620   53.7384 N.am    1  ZINC000446721380   -0.6900
     11 C11        -6.1454    3.5905   54.8673 C.ar    1  ZINC000446721380    0.2000
     12 C12        -5.6902    4.8890   55.0504 C.ar    1  ZINC000446721380   -0.1200
     13 C13        -6.0804    5.6056   56.1653 C.ar    1  ZINC000446721380   -0.0800
     14 C14        -6.9234    5.0312   57.0984 C.ar    1  ZINC000446721380   -0.1300
     15 C15        -7.3788    3.7375   56.9196 C.ar    1  ZINC000446721380   -0.0700
     16 C16        -6.9969    3.0174   55.8040 C.ar    1  ZINC000446721380   -0.1300
     17 Br17       -7.6203    1.2489   55.5597 Br      1  ZINC000446721380   -0.0500
     18 C18        -1.9604    1.8083   49.6855 C.ar    1  ZINC000446721380    0.1500
     19 O19        -2.7887    1.6968   48.6139 O.3     1  ZINC000446721380   -0.3100
     20 C20        -2.6693    2.6918   47.5953 C.3     1  ZINC000446721380    0.0700
     21 C21        -2.3191    2.0209   46.2655 C.3     1  ZINC000446721380   -0.1200
     22 H22        -2.9814    1.1753   46.0799 H       1  ZINC000446721380    0.1000
     23 C23        -0.8406    1.5621   46.2630 C.3     1  ZINC000446721380   -0.1500
     24 C24        -0.3907    1.9245   44.8246 C.3     1  ZINC000446721380    0.0500
     25 O25        -1.0800    3.1649   44.5586 O.3     1  ZINC000446721380   -0.3800
     26 C26        -2.4046    3.0368   45.1099 C.3     1  ZINC000446721380    0.0500
     27 C27        -0.7434    1.1429   49.6952 C.ar    1  ZINC000446721380   -0.2100
     28 H28         2.1863    1.1662   50.3743 H       1  ZINC000446721380    0.0800
     29 H29         1.6792    0.2736   51.8284 H       1  ZINC000446721380    0.0700
     30 H30         1.3319   -0.3869   50.2124 H       1  ZINC000446721380    0.0700
     31 H31         0.3842    2.1248   52.7183 H       1  ZINC000446721380    0.1300
     32 H32        -1.7702    3.3151   52.7011 H       1  ZINC000446721380    0.1300
     33 H33        -3.4841    4.3703   51.0111 H       1  ZINC000446721380    0.0800
     34 H34        -4.0935    3.2520   49.7677 H       1  ZINC000446721380    0.0800
     35 H35        -4.8704    1.8124   51.6144 H       1  ZINC000446721380    0.4000
     36 H36        -6.0748    1.9564   53.6090 H       1  ZINC000446721380    0.4100
     37 H37        -5.0313    5.3385   54.3223 H       1  ZINC000446721380    0.1500
     38 H38        -5.7260    6.6158   56.3084 H       1  ZINC000446721380    0.1300
     39 H39        -7.2268    5.5936   57.9690 H       1  ZINC000446721380    0.1300
     40 H40        -8.0367    3.2913   57.6507 H       1  ZINC000446721380    0.1400
     41 H41        -3.6150    3.2247   47.4954 H       1  ZINC000446721380    0.0700
     42 H42        -1.8823    3.3958   47.8656 H       1  ZINC000446721380    0.0700
     43 H43        -0.2606    2.1142   47.0026 H       1  ZINC000446721380    0.0800
     44 H44        -0.7662    0.4884   46.4349 H       1  ZINC000446721380    0.0900
     45 H45         0.6889    2.0692   44.7852 H       1  ZINC000446721380    0.1000
     46 H46        -0.7017    1.1536   44.1195 H       1  ZINC000446721380    0.0600
     47 H47        -3.0912    2.6750   44.3446 H       1  ZINC000446721380    0.0600
     48 H48        -2.7433    4.0011   45.4886 H       1  ZINC000446721380    0.0900
     49 H49        -0.4550    0.5317   48.8528 H       1  ZINC000446721380    0.1300
@<TRIPOS>BOND
     1     1     2    1
     2     1    28    1
     3     1    29    1
     4     1    30    1
     5     2    27   ar
     6     2     3   ar
     7     3     4   ar
     8     3    31    1
     9     4     5   ar
    10     4    32    1
    11     5     6    1
    12     5    18   ar
    13     6     7    1
    14     6    33    1
    15     6    34    1
    16     7     8   am
    17     7    35    1
    18     8     9    2
    19     8    10   am
    20    10    11    1
    21    10    36    1
    22    11    16   ar
    23    11    12   ar
    24    12    13   ar
    25    12    37    1
    26    13    14   ar
    27    13    38    1
    28    14    15   ar
    29    14    39    1
    30    15    16   ar
    31    15    40    1
    32    16    17    1
    33    18    19    1
    34    18    27   ar
    35    19    20    1
    36    20    21    1
    37    20    41    1
    38    20    42    1
    39    21    22    1
    40    21    26    1
    41    21    23    1
    42    23    24    1
    43    23    43    1
    44    23    44    1
    45    24    25    1
    46    24    45    1
    47    24    46    1
    48    25    26    1
    49    26    47    1
    50    26    48    1
    51    27    49    1
@<TRIPOS>SUBSTRUCTURE
     1 ZINC000446721380        1 TEMP              0 ****  ****    0 ROOT


##########                                Name:    ZINC001082278299
##########                DOCK_Rotatable_Bonds:                   9
##########                         Heavy_Atoms:                  25
##########                    Molecular_Weight:              346.47
##########                DOCK_Rotatable_Bonds:                   9
##########                       Formal_Charge:           0.0200001
##########                     HBond_Acceptors:                   5
##########                        HBond_Donors:                   1
##########                         Heavy_Atoms:                  25
##########                          Grid_Score:          -26.757292
##########                     Grid_vdw_energy:          -26.273672
##########                      Grid_es_energy:           -0.483619
##########           Internal_energy_repulsive:           87.771820

@<TRIPOS>MOLECULE
ZINC001082278299
 55 57 1 0 0
SMALL
USER_CHARGES


@<TRIPOS>ATOM
      1 C1         -9.4782    0.5948   54.2352 C.3     1  ZINC001082278299   -0.1300
      2 C2         -9.0792   -0.7638   53.7195 C.2     1  ZINC001082278299    0.0000
      3 C3         -9.6085   -1.8602   54.2548 C.2     1  ZINC001082278299   -0.2300
      4 C4        -10.5834   -1.7468   55.3504 C.2     1  ZINC001082278299    0.5400
      5 O5        -11.7329   -2.1061   55.1811 O.2     1  ZINC001082278299   -0.5300
      6 N6        -10.2029   -1.2448   56.5420 N.am    1  ZINC001082278299   -0.7400
      7 C7        -11.1736   -1.1337   57.6336 C.3     1  ZINC001082278299    0.1300
      8 C8        -10.4398   -0.8164   58.9381 C.3     1  ZINC001082278299    0.1400
      9 H9        -10.0072    0.1825   58.8804 H       1  ZINC001082278299    0.0800
     10 C10        -9.3278   -1.8452   59.1652 C.3     1  ZINC001082278299   -0.1300
     11 C11        -8.6898   -1.6069   60.5357 C.3     1  ZINC001082278299   -0.1200
     12 C12        -9.7448   -1.7867   61.6295 C.3     1  ZINC001082278299   -0.1400
     13 C13       -10.8616   -0.7571   61.4305 C.3     1  ZINC001082278299    0.1100
     14 N14       -11.3837   -0.8801   60.0623 N.am    1  ZINC001082278299   -0.6100
     15 C15       -12.7022   -1.0533   59.8434 C.2     1  ZINC001082278299    0.5100
     16 O16       -13.1208   -1.1533   58.7096 O.2     1  ZINC001082278299   -0.5100
     17 C17       -13.6566   -1.1224   61.0077 C.3     1  ZINC001082278299   -0.1100
     18 C18       -15.0695   -0.9591   60.5094 C.2     1  ZINC001082278299   -0.0900
     19 C19       -15.8958   -1.9545   60.6359 C.2     1  ZINC001082278299   -0.1800
     20 C20       -17.3209   -1.8960   60.1640 C.3     1  ZINC001082278299    0.0900
     21 O21       -17.7030   -0.5408   59.9202 O.3     1  ZINC001082278299   -0.3800
     22 C22       -16.7683    0.1654   59.0949 C.3     1  ZINC001082278299    0.0600
     23 C23       -15.4712    0.3513   59.8905 C.3     1  ZINC001082278299   -0.1100
     24 C24        -8.0803   -0.8801   52.5971 C.3     1  ZINC001082278299   -0.1200
     25 C25        -8.6166   -1.2306   51.2076 C.3     1  ZINC001082278299   -0.1900
     26 C26        -8.1214    0.1870   51.5014 C.3     1  ZINC001082278299   -0.1500
     27 H27        -8.8090    0.8872   55.0443 H       1  ZINC001082278299    0.0800
     28 H28        -9.4121    1.3238   53.4276 H       1  ZINC001082278299    0.0800
     29 H29       -10.5023    0.5560   54.6067 H       1  ZINC001082278299    0.0700
     30 H30        -9.3224   -2.8338   53.8851 H       1  ZINC001082278299    0.1300
     31 H31        -9.2865   -0.9571   56.6766 H       1  ZINC001082278299    0.3900
     32 H32       -11.8808   -0.3347   57.4110 H       1  ZINC001082278299    0.0900
     33 H33       -11.7113   -2.0759   57.7391 H       1  ZINC001082278299    0.0800
     34 H34        -9.7490   -2.8500   59.1297 H       1  ZINC001082278299    0.0700
     35 H35        -8.5706   -1.7401   58.3882 H       1  ZINC001082278299    0.0800
     36 H36        -7.8818   -2.3222   60.6894 H       1  ZINC001082278299    0.0700
     37 H37        -8.2907   -0.5936   60.5792 H       1  ZINC001082278299    0.0700
     38 H38       -10.1621   -2.7920   61.5709 H       1  ZINC001082278299    0.0700
     39 H39        -9.2845   -1.6398   62.6066 H       1  ZINC001082278299    0.0800
     40 H40       -11.6627   -0.9440   62.1456 H       1  ZINC001082278299    0.0900
     41 H41       -10.4637    0.2468   61.5786 H       1  ZINC001082278299    0.0700
     42 H42       -13.5554   -2.0878   61.5035 H       1  ZINC001082278299    0.1000
     43 H43       -13.4261   -0.3251   61.7143 H       1  ZINC001082278299    0.1000
     44 H44       -15.5424   -2.8633   61.1001 H       1  ZINC001082278299    0.1100
     45 H45       -17.4204   -2.4708   59.2431 H       1  ZINC001082278299    0.0600
     46 H46       -17.9719   -2.3235   60.9265 H       1  ZINC001082278299    0.1000
     47 H47       -16.5696   -0.4097   58.1905 H       1  ZINC001082278299    0.0600
     48 H48       -17.1770    1.1400   58.8285 H       1  ZINC001082278299    0.1000
     49 H49       -15.6277    1.0957   60.6712 H       1  ZINC001082278299    0.0800
     50 H50       -14.6800    0.6888   59.2210 H       1  ZINC001082278299    0.0800
     51 H51        -7.1045   -1.2783   52.8755 H       1  ZINC001082278299    0.1300
     52 H52        -7.9937   -1.8596   50.5717 H       1  ZINC001082278299    0.1000
     53 H53        -9.6919   -1.3770   51.1054 H       1  ZINC001082278299    0.1000
     54 H54        -8.8710    0.9731   51.5924 H       1  ZINC001082278299    0.0900
     55 H55        -7.1728    0.4905   51.0587 H       1  ZINC001082278299    0.1000
@<TRIPOS>BOND
     1     1     2    1
     2     1    27    1
     3     1    28    1
     4     1    29    1
     5     2     3    2
     6     2    24    1
     7     3     4    1
     8     3    30    1
     9     4     5    2
    10     4     6   am
    11     6     7    1
    12     6    31    1
    13     7     8    1
    14     7    32    1
    15     7    33    1
    16     8     9    1
    17     8    14    1
    18     8    10    1
    19    10    11    1
    20    10    34    1
    21    10    35    1
    22    11    12    1
    23    11    36    1
    24    11    37    1
    25    12    13    1
    26    12    38    1
    27    12    39    1
    28    13    14    1
    29    13    40    1
    30    13    41    1
    31    14    15   am
    32    15    16    2
    33    15    17    1
    34    17    18    1
    35    17    42    1
    36    17    43    1
    37    18    23    1
    38    18    19    2
    39    19    20    1
    40    19    44    1
    41    20    21    1
    42    20    45    1
    43    20    46    1
    44    21    22    1
    45    22    23    1
    46    22    47    1
    47    22    48    1
    48    23    49    1
    49    23    50    1
    50    24    26    1
    51    24    25    1
    52    24    51    1
    53    25    26    1
    54    25    52    1
    55    25    53    1
    56    26    54    1
    57    26    55    1
@<TRIPOS>SUBSTRUCTURE
     1 ZINC001082278299        1 TEMP              0 ****  ****    0 ROOT


##########                                Name:    ZINC001015666108
##########                DOCK_Rotatable_Bonds:                   7
##########                         Heavy_Atoms:                  25
##########                    Molecular_Weight:             346.429
##########                DOCK_Rotatable_Bonds:                   7
##########                       Formal_Charge:          -0.0199997
##########                     HBond_Acceptors:                   7
##########                        HBond_Donors:                   1
##########                         Heavy_Atoms:                  25
##########                          Grid_Score:          -26.726168
##########                     Grid_vdw_energy:          -26.600807
##########                      Grid_es_energy:           -0.125360
##########           Internal_energy_repulsive:           15.341435

@<TRIPOS>MOLECULE
ZINC001015666108
 51 53 1 0 0
SMALL
USER_CHARGES


@<TRIPOS>ATOM
      1 C1        -12.4829    3.5541   52.3455 C.3     1  ZINC001015666108   -0.1400
      2 C2        -11.8327    2.1691   52.3421 C.3     1  ZINC001015666108   -0.0700
      3 C3        -12.5678    1.2715   51.3803 C.2     1  ZINC001015666108   -0.0700
      4 C4        -12.3214   -0.0516   51.1497 C.2     1  ZINC001015666108   -0.0900
      5 C5        -11.2847   -0.8609   51.7985 C.2     1  ZINC001015666108    0.6100
      6 O6        -10.6968   -1.7180   51.1654 O.2     1  ZINC001015666108   -0.5100
      7 N7        -10.9827   -0.6553   53.0958 N.am    1  ZINC001015666108   -0.7200
      8 C8         -9.9483   -1.4650   53.7444 C.3     1  ZINC001015666108    0.1400
      9 H9         -9.4325   -2.0801   53.0071 H       1  ZINC001015666108    0.1100
     10 C10        -8.9404   -0.5555   54.4839 C.3     1  ZINC001015666108   -0.1300
     11 C11        -9.4597   -0.5780   55.9435 C.3     1  ZINC001015666108    0.0300
     12 N12        -9.9244   -1.9779   56.1175 N.3     1  ZINC001015666108   -0.5100
     13 C13       -10.8702   -2.0833   57.2365 C.3     1  ZINC001015666108    0.1700
     14 H14       -11.6336   -1.3112   57.1411 H       1  ZINC001015666108    0.0900
     15 C15       -11.5337   -3.4618   57.2153 C.3     1  ZINC001015666108   -0.1500
     16 C16       -10.1315   -1.9014   58.5374 C.2     1  ZINC001015666108    0.1900
     17 N17        -9.8818   -0.7646   59.1413 N.2     1  ZINC001015666108   -0.4800
     18 C18        -9.2053   -1.0885   60.2577 C.2     1  ZINC001015666108    0.1800
     19 C19        -8.6877   -0.1282   61.2972 C.3     1  ZINC001015666108    0.0000
     20 C20        -8.7747    1.3015   60.7593 C.3     1  ZINC001015666108   -0.1500
     21 C21        -9.5324   -0.2474   62.5674 C.3     1  ZINC001015666108   -0.1500
     22 N22        -9.0805   -2.3818   60.2755 N.2     1  ZINC001015666108   -0.3800
     23 O23        -9.6108   -2.8683   59.2990 O.3     1  ZINC001015666108    0.1000
     24 C24       -10.5713   -2.3517   54.8385 C.3     1  ZINC001015666108    0.0300
     25 O25       -13.1988   -0.4839   50.2205 O.3     1  ZINC001015666108   -0.1700
     26 C26       -13.9950    0.5293   49.8555 C.2     1  ZINC001015666108    0.0000
     27 C27       -13.6424    1.6320   50.5523 C.2     1  ZINC001015666108   -0.2200
     28 H28       -11.9513    4.2033   53.0412 H       1  ZINC001015666108    0.0600
     29 H29       -12.4363    3.9798   51.3432 H       1  ZINC001015666108    0.0600
     30 H30       -13.5244    3.4658   52.6546 H       1  ZINC001015666108    0.0500
     31 H31       -10.7912    2.2574   52.0330 H       1  ZINC001015666108    0.0900
     32 H32       -11.8794    1.7434   53.3444 H       1  ZINC001015666108    0.0700
     33 H33       -11.4504    0.0287   53.6002 H       1  ZINC001015666108    0.4000
     34 H34        -7.9334   -0.9691   54.4264 H       1  ZINC001015666108    0.0900
     35 H35        -8.9663    0.4568   54.0807 H       1  ZINC001015666108    0.0800
     36 H36        -8.6543   -0.3504   56.6419 H       1  ZINC001015666108    0.0800
     37 H37       -10.2871    0.1205   56.0681 H       1  ZINC001015666108    0.0500
     38 H38       -10.7703   -4.2340   57.3107 H       1  ZINC001015666108    0.0800
     39 H39       -12.2355   -3.5401   58.0457 H       1  ZINC001015666108    0.0700
     40 H40       -12.0680   -3.5935   56.2745 H       1  ZINC001015666108    0.0800
     41 H41        -7.6494   -0.3670   61.5276 H       1  ZINC001015666108    0.1000
     42 H42        -9.8130    1.5404   60.5288 H       1  ZINC001015666108    0.0600
     43 H43        -8.4004    1.9961   61.5111 H       1  ZINC001015666108    0.0700
     44 H44        -8.1730    1.3865   59.8544 H       1  ZINC001015666108    0.0600
     45 H45       -10.5707   -0.0086   62.3370 H       1  ZINC001015666108    0.0600
     46 H46        -9.4703   -1.2659   62.9507 H       1  ZINC001015666108    0.0600
     47 H47        -9.1580    0.4472   63.3193 H       1  ZINC001015666108    0.0700
     48 H48       -11.6443   -2.1692   54.8978 H       1  ZINC001015666108    0.0600
     49 H49       -10.3823   -3.4027   54.6200 H       1  ZINC001015666108    0.1000
     50 H50       -14.7906    0.4731   49.1272 H       1  ZINC001015666108    0.2100
     51 H51       -14.0975    2.6089   50.4808 H       1  ZINC001015666108    0.1600
@<TRIPOS>BOND
     1     1     2    1
     2     1    28    1
     3     1    29    1
     4     1    30    1
     5     2     3    1
     6     2    31    1
     7     2    32    1
     8     3    27    1
     9     3     4    2
    10     4     5    1
    11     4    25    1
    12     5     6    2
    13     5     7   am
    14     7     8    1
    15     7    33    1
    16     8     9    1
    17     8    24    1
    18     8    10    1
    19    10    11    1
    20    10    34    1
    21    10    35    1
    22    11    12    1
    23    11    36    1
    24    11    37    1
    25    12    13    1
    26    12    24    1
    27    13    14    1
    28    13    15    1
    29    13    16    1
    30    15    38    1
    31    15    39    1
    32    15    40    1
    33    16    23    1
    34    16    17    2
    35    17    18    1
    36    18    19    1
    37    18    22    2
    38    19    20    1
    39    19    21    1
    40    19    41    1
    41    20    42    1
    42    20    43    1
    43    20    44    1
    44    21    45    1
    45    21    46    1
    46    21    47    1
    47    22    23    1
    48    24    48    1
    49    24    49    1
    50    25    26    1
    51    26    27    2
    52    26    50    1
    53    27    51    1
@<TRIPOS>SUBSTRUCTURE
     1 ZINC001015666108        1 TEMP              0 ****  ****    0 ROOT


##########                                Name:    ZINC000928803822
##########                DOCK_Rotatable_Bonds:                   7
##########                         Heavy_Atoms:                  21
##########                    Molecular_Weight:             364.165
##########                DOCK_Rotatable_Bonds:                   7
##########                       Formal_Charge:         -0.00999978
##########                     HBond_Acceptors:                   7
##########                        HBond_Donors:                   1
##########                         Heavy_Atoms:                  21
##########                          Grid_Score:          -26.717958
##########                     Grid_vdw_energy:          -26.964037
##########                      Grid_es_energy:            0.246078
##########           Internal_energy_repulsive:            8.635475

@<TRIPOS>MOLECULE
ZINC000928803822
 34 34 1 0 0
SMALL
USER_CHARGES


@<TRIPOS>ATOM
      1 C1         -8.2232    0.0569   52.4575 C.3     1  ZINC000928803822    0.0900
      2 N2         -6.7964   -0.0283   52.1361 N.pl3   1  ZINC000928803822   -0.6300
      3 C3         -6.1885   -1.3280   51.8408 C.3     1  ZINC000928803822    0.0900
      4 C4         -6.0156    1.1300   52.1111 C.ar    1  ZINC000928803822    0.2200
      5 C5         -6.1587    2.0859   53.1095 C.ar    1  ZINC000928803822   -0.1500
      6 C6         -5.3879    3.2344   53.0891 C.ar    1  ZINC000928803822   -0.0500
      7 Br7        -5.5894    4.5291   54.4526 Br      1  ZINC000928803822   -0.0400
      8 C8         -4.4716    3.4382   52.0765 C.ar    1  ZINC000928803822   -0.1200
      9 C9         -4.3208    2.4836   51.0692 C.ar    1  ZINC000928803822   -0.0800
     10 C10        -3.3403    2.6993   49.9837 C.2     1  ZINC000928803822    0.5700
     11 O11        -2.6167    3.6758   50.0033 O.2     1  ZINC000928803822   -0.5100
     12 N12        -3.2488    1.8131   48.9722 N.am    1  ZINC000928803822   -0.7200
     13 C13        -2.2786    2.0277   47.8958 C.3     1  ZINC000928803822    0.1100
     14 H14        -1.9766    3.0750   47.8824 H       1  ZINC000928803822    0.1400
     15 C15        -2.9169    1.6638   46.5539 C.3     1  ZINC000928803822   -0.0300
     16 C16        -2.4927    2.6323   45.5299 C.1     1  ZINC000928803822    0.2000
     17 N17        -2.1652    3.3799   44.7397 N.1     1  ZINC000928803822   -0.4000
     18 C18        -1.0509    1.1459   48.1324 C.3     1  ZINC000928803822    0.4400
     19 F19        -0.1402    1.3238   47.0855 F       1  ZINC000928803822   -0.1800
     20 F20        -0.4461    1.5033   49.3423 F       1  ZINC000928803822   -0.1700
     21 F21        -1.4437   -0.1957   48.1859 F       1  ZINC000928803822   -0.1600
     22 C22        -5.0939    1.3231   51.0930 C.ar    1  ZINC000928803822   -0.1200
     23 H23        -8.3599   -0.0467   53.5340 H       1  ZINC000928803822    0.0600
     24 H24        -8.6117    1.0224   52.1333 H       1  ZINC000928803822    0.0700
     25 H25        -8.7595   -0.7414   51.9446 H       1  ZINC000928803822    0.0700
     26 H26        -6.2548   -1.5256   50.7709 H       1  ZINC000928803822    0.0500
     27 H27        -5.1416   -1.3168   52.1440 H       1  ZINC000928803822    0.0700
     28 H28        -6.7167   -2.1089   52.3878 H       1  ZINC000928803822    0.0700
     29 H29        -6.8742    1.9319   53.9037 H       1  ZINC000928803822    0.1400
     30 H30        -3.8718    4.3363   52.0637 H       1  ZINC000928803822    0.1300
     31 H31        -3.8254    1.0332   48.9572 H       1  ZINC000928803822    0.4100
     32 H32        -2.6004    0.6627   46.2605 H       1  ZINC000928803822    0.1400
     33 H33        -4.0025    1.6880   46.6494 H       1  ZINC000928803822    0.1300
     34 H34        -4.9815    0.5813   50.3163 H       1  ZINC000928803822    0.1500
@<TRIPOS>BOND
     1     1     2    1
     2     1    23    1
     3     1    24    1
     4     1    25    1
     5     2     3    1
     6     2     4    1
     7     3    26    1
     8     3    27    1
     9     3    28    1
    10     4    22   ar
    11     4     5   ar
    12     5     6   ar
    13     5    29    1
    14     6     7    1
    15     6     8   ar
    16     8     9   ar
    17     8    30    1
    18     9    10    1
    19     9    22   ar
    20    10    11    2
    21    10    12   am
    22    12    13    1
    23    12    31    1
    24    13    14    1
    25    13    15    1
    26    13    18    1
    27    15    16    1
    28    15    32    1
    29    15    33    1
    30    16    17    3
    31    18    19    1
    32    18    20    1
    33    18    21    1
    34    22    34    1
@<TRIPOS>SUBSTRUCTURE
     1 ZINC000928803822        1 TEMP              0 ****  ****    0 ROOT


##########                                Name:    ZINC000518937710
##########                DOCK_Rotatable_Bonds:                   6
##########                         Heavy_Atoms:                  25
##########                    Molecular_Weight:             397.421
##########                DOCK_Rotatable_Bonds:                   6
##########                       Formal_Charge:          -0.0199997
##########                     HBond_Acceptors:                  11
##########                        HBond_Donors:                   0
##########                         Heavy_Atoms:                  25
##########                          Grid_Score:          -26.702827
##########                     Grid_vdw_energy:          -25.974779
##########                      Grid_es_energy:           -0.728049
##########           Internal_energy_repulsive:           19.520197

@<TRIPOS>MOLECULE
ZINC000518937710
 42 44 1 0 0
SMALL
USER_CHARGES


@<TRIPOS>ATOM
      1 C1        -11.3190    0.8036   56.6695 C.3     1  ZINC000518937710   -0.1900
      2 C2        -10.7605   -0.6197   56.6133 C.3     1  ZINC000518937710    0.1700
      3 H3        -11.5285   -1.2969   56.2400 H       1  ZINC000518937710    0.1100
      4 C4         -9.5501   -0.6560   55.6781 C.3     1  ZINC000518937710   -0.6600
      5 S5         -9.9889   -1.5384   54.1551 S.o2    1  ZINC000518937710    2.4000
      6 C6        -11.4720   -0.6431   53.6173 C.3     1  ZINC000518937710   -0.6600
      7 O7         -8.9605   -1.3276   53.1974 O.2     1  ZINC000518937710   -0.9200
      8 O8        -10.3603   -2.8678   54.4931 O.2     1  ZINC000518937710   -0.9300
      9 N9        -10.3521   -1.0376   57.9568 N.am    1  ZINC000518937710   -0.9600
     10 C10        -9.7524   -0.0666   58.8753 C.3     1  ZINC000518937710    0.0800
     11 C11        -8.4563   -0.4693   59.5816 C.3     1  ZINC000518937710   -0.1800
     12 C12        -8.4252    0.5718   58.4608 C.3     1  ZINC000518937710   -0.1800
     13 S13       -10.5682   -2.6076   58.4370 S.o2    1  ZINC000518937710    2.6900
     14 O14        -9.9464   -3.4185   57.4495 O.2     1  ZINC000518937710   -0.9400
     15 O15       -10.2219   -2.6573   59.8142 O.2     1  ZINC000518937710   -0.9400
     16 C16       -12.2947   -2.9481   58.3455 C.ar    1  ZINC000518937710   -0.6400
     17 C17       -12.8123   -3.6022   57.2432 C.ar    1  ZINC000518937710   -0.0300
     18 C18       -14.1664   -3.8710   57.1680 C.ar    1  ZINC000518937710   -0.1300
     19 C19       -15.0083   -3.4873   58.1950 C.ar    1  ZINC000518937710   -0.0300
     20 C20       -14.4964   -2.8313   59.3027 C.ar    1  ZINC000518937710    0.0200
     21 C21       -13.1317   -2.5650   59.3809 C.ar    1  ZINC000518937710    0.1900
     22 O22       -12.8801   -1.9174   60.5559 O.3     1  ZINC000518937710   -0.2800
     23 C23       -14.1571   -1.4278   61.0061 C.3     1  ZINC000518937710    0.5700
     24 F24       -14.2310   -1.4591   62.4027 F       1  ZINC000518937710   -0.1200
     25 F25       -14.3812   -0.1307   60.5322 F       1  ZINC000518937710   -0.1400
     26 O26       -15.0993   -2.3545   60.4308 O.3     1  ZINC000518937710   -0.2900
     27 H27       -10.5630    1.4747   57.0772 H       1  ZINC000518937710    0.1000
     28 H28       -11.5889    1.1279   55.6646 H       1  ZINC000518937710    0.0800
     29 H29       -12.2030    0.8220   57.3070 H       1  ZINC000518937710    0.0700
     30 H30        -9.2491    0.3627   55.4337 H       1  ZINC000518937710    0.1600
     31 H31        -8.7252   -1.1703   56.1711 H       1  ZINC000518937710    0.1400
     32 H32       -11.2052    0.3830   53.3641 H       1  ZINC000518937710    0.1300
     33 H33       -11.8956   -1.1348   52.7415 H       1  ZINC000518937710    0.1300
     34 H34       -12.2063   -0.6394   54.4227 H       1  ZINC000518937710    0.1300
     35 H35       -10.4570    0.5527   59.4305 H       1  ZINC000518937710    0.1500
     36 H36        -8.3080   -0.1151   60.6017 H       1  ZINC000518937710    0.1100
     37 H37        -8.0498   -1.4566   59.3627 H       1  ZINC000518937710    0.1000
     38 H38        -7.9982    0.2694   57.5046 H       1  ZINC000518937710    0.1000
     39 H39        -8.2565    1.6109   58.7436 H       1  ZINC000518937710    0.1000
     40 H40       -12.1576   -3.9036   56.4388 H       1  ZINC000518937710    0.1600
     41 H41       -14.5672   -4.3816   56.3049 H       1  ZINC000518937710    0.1600
     42 H42       -16.0657   -3.6986   58.1336 H       1  ZINC000518937710    0.1500
@<TRIPOS>BOND
     1     1     2    1
     2     1    27    1
     3     1    28    1
     4     1    29    1
     5     2     3    1
     6     2     4    1
     7     2     9    1
     8     4     5    1
     9     4    30    1
    10     4    31    1
    11     5     6    1
    12     5     7    2
    13     5     8    2
    14     6    32    1
    15     6    33    1
    16     6    34    1
    17     9    10    1
    18     9    13   am
    19    10    12    1
    20    10    11    1
    21    10    35    1
    22    11    12    1
    23    11    36    1
    24    11    37    1
    25    12    38    1
    26    12    39    1
    27    13    14    2
    28    13    15    2
    29    13    16    1
    30    16    21   ar
    31    16    17   ar
    32    17    18   ar
    33    17    40    1
    34    18    19   ar
    35    18    41    1
    36    19    20   ar
    37    19    42    1
    38    20    26    1
    39    20    21   ar
    40    21    22    1
    41    22    23    1
    42    23    24    1
    43    23    25    1
    44    23    26    1
@<TRIPOS>SUBSTRUCTURE
     1 ZINC000518937710        1 TEMP              0 ****  ****    0 ROOT


##########                                Name:    ZINC000535362552
##########                DOCK_Rotatable_Bonds:                   5
##########                         Heavy_Atoms:                  26
##########                    Molecular_Weight:             416.228
##########                DOCK_Rotatable_Bonds:                   5
##########                       Formal_Charge:         -0.00999981
##########                     HBond_Acceptors:                   6
##########                        HBond_Donors:                   1
##########                         Heavy_Atoms:                  26
##########                          Grid_Score:          -26.673800
##########                     Grid_vdw_energy:          -25.927818
##########                      Grid_es_energy:           -0.745982
##########           Internal_energy_repulsive:           21.241114

@<TRIPOS>MOLECULE
ZINC000535362552
 40 43 1 0 0
SMALL
USER_CHARGES


@<TRIPOS>ATOM
      1 C1         -5.0074    3.0152   52.5609 C.3     1  ZINC000535362552    0.0300
      2 O2         -4.0513    3.7555   53.3646 O.3     1  ZINC000535362552   -0.3400
      3 C3         -4.1933    3.6859   54.7039 C.2     1  ZINC000535362552    0.5500
      4 O4         -3.4226    4.2850   55.4288 O.2     1  ZINC000535362552   -0.4800
      5 C5         -5.2781    2.8867   55.2865 C.2     1  ZINC000535362552   -0.0100
      6 C6         -5.5202    2.7484   56.6167 C.2     1  ZINC000535362552   -0.0900
      7 C7         -6.6865    1.8733   56.7272 C.ar    1  ZINC000535362552   -0.1300
      8 C8         -7.4168    1.3584   57.8007 C.ar    1  ZINC000535362552   -0.0600
      9 C9         -8.4994    0.5346   57.5557 C.ar    1  ZINC000535362552    0.1200
     10 N10        -9.2380    0.0141   58.6265 N.am    1  ZINC000535362552   -0.6700
     11 C11        -8.6918   -0.9188   59.4315 C.2     1  ZINC000535362552    0.5200
     12 O12        -7.5609   -1.3076   59.2290 O.2     1  ZINC000535362552   -0.5000
     13 C13        -9.4861   -1.4787   60.5832 C.3     1  ZINC000535362552   -0.1000
     14 H14        -8.9988   -2.3614   60.9974 H       1  ZINC000535362552    0.1300
     15 C15        -9.7075   -0.4058   61.6756 C.3     1  ZINC000535362552    0.0600
     16 O16       -11.0354   -0.6970   62.1434 O.3     1  ZINC000535362552   -0.2900
     17 C17       -11.7478   -1.2771   61.1385 C.ar    1  ZINC000535362552    0.1300
     18 C18       -13.1249   -1.4102   60.9819 C.ar    1  ZINC000535362552   -0.1300
     19 C19       -13.6398   -2.0513   59.8740 C.ar    1  ZINC000535362552   -0.0500
     20 C20       -12.7934   -2.5680   58.9096 C.ar    1  ZINC000535362552   -0.1200
     21 Br21      -13.5055   -3.4504   57.3962 Br      1  ZINC000535362552   -0.0400
     22 C22       -11.4229   -2.4361   59.0563 C.ar    1  ZINC000535362552   -0.0100
     23 C23       -10.9076   -1.7933   60.1589 C.ar    1  ZINC000535362552   -0.1600
     24 C24        -8.8584    0.2209   56.2459 C.ar    1  ZINC000535362552   -0.0900
     25 C25        -8.1434    0.7238   55.1817 C.ar    1  ZINC000535362552   -0.0900
     26 C26        -7.0517    1.5544   55.4057 C.ar    1  ZINC000535362552    0.0700
     27 O27        -6.1892    2.1834   54.5821 O.3     1  ZINC000535362552   -0.1700
     28 H28        -6.0142    3.3781   52.7679 H       1  ZINC000535362552    0.0700
     29 H29        -4.7804    3.1566   51.5042 H       1  ZINC000535362552    0.1100
     30 H30        -4.9455    1.9553   52.8072 H       1  ZINC000535362552    0.0700
     31 H31        -4.9634    3.1940   57.4278 H       1  ZINC000535362552    0.1800
     32 H32        -7.1374    1.6020   58.8151 H       1  ZINC000535362552    0.1400
     33 H33       -10.1424    0.3251   58.7885 H       1  ZINC000535362552    0.4100
     34 H34        -8.9812   -0.5185   62.4805 H       1  ZINC000535362552    0.1200
     35 H35        -9.6595    0.5959   61.2483 H       1  ZINC000535362552    0.0900
     36 H36       -13.7927   -1.0097   61.7304 H       1  ZINC000535362552    0.1400
     37 H37       -14.7091   -2.1507   59.7593 H       1  ZINC000535362552    0.1400
     38 H38       -10.7581   -2.8379   58.3059 H       1  ZINC000535362552    0.1400
     39 H39        -9.7057   -0.4236   56.0637 H       1  ZINC000535362552    0.1500
     40 H40        -8.4314    0.4725   54.1716 H       1  ZINC000535362552    0.1500
@<TRIPOS>BOND
     1     1     2    1
     2     1    28    1
     3     1    29    1
     4     1    30    1
     5     2     3    1
     6     3     4    2
     7     3     5    1
     8     5    27    1
     9     5     6    2
    10     6     7    1
    11     6    31    1
    12     7    26   ar
    13     7     8   ar
    14     8     9   ar
    15     8    32    1
    16     9    10    1
    17     9    24   ar
    18    10    11   am
    19    10    33    1
    20    11    12    2
    21    11    13    1
    22    13    14    1
    23    13    23    1
    24    13    15    1
    25    15    16    1
    26    15    34    1
    27    15    35    1
    28    16    17    1
    29    17    23   ar
    30    17    18   ar
    31    18    19   ar
    32    18    36    1
    33    19    20   ar
    34    19    37    1
    35    20    21    1
    36    20    22   ar
    37    22    23   ar
    38    22    38    1
    39    24    25   ar
    40    24    39    1
    41    25    26   ar
    42    25    40    1
    43    26    27    1
@<TRIPOS>SUBSTRUCTURE
     1 ZINC000535362552        1 TEMP              0 ****  ****    0 ROOT


##########                                Name:    ZINC000277085192
##########                DOCK_Rotatable_Bonds:                   4
##########                         Heavy_Atoms:                  23
##########                    Molecular_Weight:             335.747
##########                DOCK_Rotatable_Bonds:                   4
##########                       Formal_Charge:         5.96046e-08
##########                     HBond_Acceptors:                   8
##########                        HBond_Donors:                   2
##########                         Heavy_Atoms:                  23
##########                          Grid_Score:          -26.649141
##########                     Grid_vdw_energy:          -25.407909
##########                      Grid_es_energy:           -1.241232
##########           Internal_energy_repulsive:            7.004858

@<TRIPOS>MOLECULE
ZINC000277085192
 37 39 1 0 0
SMALL
USER_CHARGES


@<TRIPOS>ATOM
      1 O1        -12.7148   -1.7867   56.0146 O.2     1  ZINC000277085192   -0.5000
      2 C2        -12.1684   -2.6327   56.6907 C.2     1  ZINC000277085192    0.5000
      3 C3        -12.9937   -3.6401   57.4490 C.3     1  ZINC000277085192    0.1100
      4 N4        -13.8832   -2.9412   58.3798 N.am    1  ZINC000277085192   -0.6000
      5 C5        -15.3328   -3.0212   58.1906 C.3     1  ZINC000277085192    0.1100
      6 C6        -16.0253   -3.0595   59.5548 C.3     1  ZINC000277085192   -0.1600
      7 C7        -15.4372   -1.9890   60.4393 C.2     1  ZINC000277085192    0.5200
      8 O8        -16.1389   -1.4129   61.2427 O.2     1  ZINC000277085192   -0.5000
      9 N9        -14.1329   -1.6740   60.3368 N.am    1  ZINC000277085192   -0.6700
     10 C10       -13.3577   -2.2405   59.3979 C.2     1  ZINC000277085192    0.7200
     11 O11       -12.1514   -2.1089   59.4661 O.2     1  ZINC000277085192   -0.5500
     12 N12       -10.8230   -2.6751   56.7592 N.am    1  ZINC000277085192   -0.6700
     13 C13       -10.0562   -1.7392   56.0547 C.ar    1  ZINC000277085192    0.1400
     14 C14        -9.9479   -1.8292   54.6793 C.ar    1  ZINC000277085192   -0.0400
     15 C15        -9.1788   -0.8916   53.9726 C.ar    1  ZINC000277085192   -0.1700
     16 C16        -8.5288    0.1270   54.6701 C.ar    1  ZINC000277085192   -0.0500
     17 C17        -8.6449    0.2070   56.0452 C.ar    1  ZINC000277085192   -0.0900
     18 C18        -9.4075   -0.7150   56.7383 C.ar    1  ZINC000277085192   -0.0300
     19 Cl19       -9.5449   -0.6032   58.4652 Cl      1  ZINC000277085192   -0.0500
     20 C20        -7.7722    1.0021   53.6993 C.3     1  ZINC000277085192   -0.0800
     21 C21        -8.0223    0.4140   52.3039 C.3     1  ZINC000277085192   -0.1700
     22 C22        -8.9165   -0.7810   52.5285 C.2     1  ZINC000277085192    0.4100
     23 O23        -9.3447   -1.5212   51.6687 O.2     1  ZINC000277085192   -0.4300
     24 H24       -13.5887   -4.2244   56.7472 H       1  ZINC000277085192    0.1300
     25 H25       -12.3336   -4.3044   58.0068 H       1  ZINC000277085192    0.1200
     26 H26       -15.6751   -2.1488   57.6339 H       1  ZINC000277085192    0.0800
     27 H27       -15.5770   -3.9259   57.6337 H       1  ZINC000277085192    0.1000
     28 H28       -17.0927   -2.8802   59.4266 H       1  ZINC000277085192    0.1300
     29 H29       -15.8717   -4.0362   60.0138 H       1  ZINC000277085192    0.1200
     30 H30       -13.7469   -1.0312   60.9522 H       1  ZINC000277085192    0.4300
     31 H31       -10.3860   -3.3540   57.2967 H       1  ZINC000277085192    0.4200
     32 H32       -10.4550   -2.6214   54.1486 H       1  ZINC000277085192    0.1500
     33 H33        -8.1398    0.9968   56.5813 H       1  ZINC000277085192    0.1500
     34 H34        -8.1465    2.0248   53.7472 H       1  ZINC000277085192    0.1000
     35 H35        -6.7068    0.9817   53.9289 H       1  ZINC000277085192    0.1000
     36 H36        -8.5224    1.1460   51.6698 H       1  ZINC000277085192    0.1100
     37 H37        -7.0810    0.1017   51.8516 H       1  ZINC000277085192    0.1100
@<TRIPOS>BOND
     1     1     2    2
     2     2     3    1
     3     2    12   am
     4     3     4    1
     5     3    24    1
     6     3    25    1
     7     4    10   am
     8     4     5    1
     9     5     6    1
    10     5    26    1
    11     5    27    1
    12     6     7    1
    13     6    28    1
    14     6    29    1
    15     7     8    2
    16     7     9   am
    17     9    10   am
    18     9    30    1
    19    10    11    2
    20    12    13    1
    21    12    31    1
    22    13    18   ar
    23    13    14   ar
    24    14    15   ar
    25    14    32    1
    26    15    22    1
    27    15    16   ar
    28    16    17   ar
    29    16    20    1
    30    17    18   ar
    31    17    33    1
    32    18    19    1
    33    20    21    1
    34    20    34    1
    35    20    35    1
    36    21    22    1
    37    21    36    1
    38    21    37    1
    39    22    23    2
@<TRIPOS>SUBSTRUCTURE
     1 ZINC000277085192        1 TEMP              0 ****  ****    0 ROOT


##########                                Name:    ZINC000478980774
##########                DOCK_Rotatable_Bonds:                   4
##########                         Heavy_Atoms:                  26
##########                    Molecular_Weight:             401.818
##########                DOCK_Rotatable_Bonds:                   4
##########                       Formal_Charge:          -0.0100001
##########                     HBond_Acceptors:                   9
##########                        HBond_Donors:                   1
##########                         Heavy_Atoms:                  26
##########                          Grid_Score:          -26.607246
##########                     Grid_vdw_energy:          -26.144541
##########                      Grid_es_energy:           -0.462706
##########           Internal_energy_repulsive:            5.044536

@<TRIPOS>MOLECULE
ZINC000478980774
 40 42 1 0 0
SMALL
USER_CHARGES


@<TRIPOS>ATOM
      1 C1         -8.2324    0.4290   58.5501 C.3     1  ZINC000478980774   -0.1400
      2 C2         -8.6364   -0.6417   59.5654 C.3     1  ZINC000478980774   -0.4600
      3 H3         -7.9267   -1.4681   59.5239 H       1  ZINC000478980774    0.1500
      4 C4         -8.6344   -0.0471   60.9502 C.2     1  ZINC000478980774    0.5400
      5 O5         -8.3730    1.1271   61.1057 O.2     1  ZINC000478980774   -0.5000
      6 N6         -8.9228   -0.8201   62.0159 N.am    1  ZINC000478980774   -0.6600
      7 C7         -8.9210   -0.2673   63.3032 C.ar    1  ZINC000478980774    0.1600
      8 C8         -9.9640    0.5546   63.7072 C.ar    1  ZINC000478980774   -0.1200
      9 C9         -9.9632    1.1011   64.9768 C.ar    1  ZINC000478980774   -0.0600
     10 C10        -8.9222    0.8304   65.8494 C.ar    1  ZINC000478980774    0.0100
     11 O11        -8.6879    1.2384   67.1318 O.3     1  ZINC000478980774   -0.2900
     12 C12        -7.6982    0.3297   67.6493 C.3     1  ZINC000478980774    0.5700
     13 F13        -6.8378    0.9908   68.5325 F       1  ZINC000478980774   -0.1100
     14 F14        -8.3116   -0.7561   68.2833 F       1  ZINC000478980774   -0.1500
     15 O15        -6.9841   -0.1030   66.4763 O.3     1  ZINC000478980774   -0.2800
     16 C16        -7.8740    0.0054   65.4468 C.ar    1  ZINC000478980774    0.0500
     17 C17        -7.8785   -0.5461   64.1771 C.ar    1  ZINC000478980774   -0.0900
     18 S18       -10.2988   -1.2519   59.1719 S.o     1  ZINC000478980774    1.3000
     19 O19       -11.2289   -0.1810   59.2575 O.2     1  ZINC000478980774   -0.7800
     20 C20       -10.1412   -1.7791   57.4434 C.3     1  ZINC000478980774   -0.4300
     21 C21       -11.4624   -2.3202   56.9609 C.ar    1  ZINC000478980774   -0.0600
     22 C22       -12.3497   -1.4908   56.3017 C.ar    1  ZINC000478980774   -0.1100
     23 C23       -13.5619   -1.9871   55.8590 C.ar    1  ZINC000478980774   -0.1100
     24 C24       -13.8873   -3.3128   56.0760 C.ar    1  ZINC000478980774   -0.1100
     25 C25       -13.0005   -4.1434   56.7354 C.ar    1  ZINC000478980774   -0.1100
     26 C26       -11.7850   -3.6490   57.1730 C.ar    1  ZINC000478980774   -0.0300
     27 Cl27      -10.6709   -4.6915   58.0011 Cl      1  ZINC000478980774   -0.0600
     28 H28        -8.2339   -0.0011   57.5485 H       1  ZINC000478980774    0.0800
     29 H29        -8.9420    1.2553   58.5917 H       1  ZINC000478980774    0.0700
     30 H30        -7.2336    0.7957   58.7866 H       1  ZINC000478980774    0.0700
     31 H31        -9.1316   -1.7591   61.8917 H       1  ZINC000478980774    0.4200
     32 H32       -10.7768    0.7676   63.0287 H       1  ZINC000478980774    0.1500
     33 H33       -10.7757    1.7405   65.2888 H       1  ZINC000478980774    0.1500
     34 H34        -7.0695   -1.1898   63.8648 H       1  ZINC000478980774    0.1600
     35 H35        -9.8513   -0.9270   56.8285 H       1  ZINC000478980774    0.1100
     36 H36        -9.3810   -2.5566   57.3685 H       1  ZINC000478980774    0.1300
     37 H37       -12.0962   -0.4547   56.1324 H       1  ZINC000478980774    0.1400
     38 H38       -14.2550   -1.3385   55.3438 H       1  ZINC000478980774    0.1300
     39 H39       -14.8346   -3.6997   55.7307 H       1  ZINC000478980774    0.1300
     40 H40       -13.2549   -5.1792   56.9048 H       1  ZINC000478980774    0.1300
@<TRIPOS>BOND
     1     1     2    1
     2     1    28    1
     3     1    29    1
     4     1    30    1
     5     2     3    1
     6     2     4    1
     7     2    18    1
     8     4     5    2
     9     4     6   am
    10     6     7    1
    11     6    31    1
    12     7    17   ar
    13     7     8   ar
    14     8     9   ar
    15     8    32    1
    16     9    10   ar
    17     9    33    1
    18    10    16   ar
    19    10    11    1
    20    11    12    1
    21    12    13    1
    22    12    14    1
    23    12    15    1
    24    15    16    1
    25    16    17   ar
    26    17    34    1
    27    18    19    2
    28    18    20    1
    29    20    21    1
    30    20    35    1
    31    20    36    1
    32    21    26   ar
    33    21    22   ar
    34    22    23   ar
    35    22    37    1
    36    23    24   ar
    37    23    38    1
    38    24    25   ar
    39    24    39    1
    40    25    26   ar
    41    25    40    1
    42    26    27    1
@<TRIPOS>SUBSTRUCTURE
     1 ZINC000478980774        1 TEMP              0 ****  ****    0 ROOT


##########                                Name:    ZINC000956479608
##########                DOCK_Rotatable_Bonds:                   5
##########                         Heavy_Atoms:                  25
##########                    Molecular_Weight:             345.442
##########                DOCK_Rotatable_Bonds:                   5
##########                       Formal_Charge:          -0.0100001
##########                     HBond_Acceptors:                   6
##########                        HBond_Donors:                   1
##########                         Heavy_Atoms:                  25
##########                          Grid_Score:          -26.602861
##########                     Grid_vdw_energy:          -25.968018
##########                      Grid_es_energy:           -0.634843
##########           Internal_energy_repulsive:           35.927818

@<TRIPOS>MOLECULE
ZINC000956479608
 52 55 1 0 0
SMALL
USER_CHARGES


@<TRIPOS>ATOM
      1 C1        -14.0817   -2.3370   61.0112 C.3     1  ZINC000956479608   -0.0900
      2 C2        -14.1805   -0.9475   61.5864 C.2     1  ZINC000956479608   -0.1100
      3 C3        -13.2116    0.0174   61.6328 C.2     1  ZINC000956479608   -0.1000
      4 C4        -11.8317   -0.0866   61.1221 C.2     1  ZINC000956479608    0.6100
      5 O5        -11.0856    0.8713   61.1869 O.2     1  ZINC000956479608   -0.5000
      6 N6        -11.3978   -1.2435   60.5837 N.am    1  ZINC000956479608   -0.7100
      7 C7        -10.0278   -1.3462   60.0749 C.3     1  ZINC000956479608    0.1800
      8 C8         -9.0405   -1.0526   61.2063 C.3     1  ZINC000956479608   -0.1700
      9 C9         -9.7865   -2.7606   59.5423 C.3     1  ZINC000956479608   -0.1500
     10 C10       -10.7988   -3.0639   58.4333 C.3     1  ZINC000956479608    0.1100
     11 N11       -10.7110   -2.0113   57.4120 N.am    1  ZINC000956479608   -0.6100
     12 C12       -10.5175   -2.3265   56.1160 C.2     1  ZINC000956479608    0.5500
     13 O13       -10.4156   -3.4883   55.7831 O.2     1  ZINC000956479608   -0.5400
     14 C14       -10.4278   -1.2353   55.0804 C.3     1  ZINC000956479608   -0.1900
     15 H15       -11.2966   -0.5809   55.0100 H       1  ZINC000956479608    0.1200
     16 C16        -9.0590   -0.6184   54.8244 C.3     1  ZINC000956479608   -0.1100
     17 H17        -8.2348   -1.0289   55.4077 H       1  ZINC000956479608    0.1000
     18 C18        -8.9433    0.8675   54.5219 C.3     1  ZINC000956479608   -0.0900
     19 C19        -9.9295    1.2693   53.4252 C.3     1  ZINC000956479608   -0.1200
     20 C20        -9.6912    0.3760   52.2024 C.3     1  ZINC000956479608   -0.1200
     21 C21       -10.2551   -1.0141   52.4971 C.3     1  ZINC000956479608   -0.0900
     22 C22        -9.6670   -1.5484   53.7827 C.3     1  ZINC000956479608   -0.1100
     23 H23        -9.2141   -2.5374   53.7138 H       1  ZINC000956479608    0.1100
     24 C24       -10.8385   -0.6087   57.8304 C.3     1  ZINC000956479608    0.1000
     25 C25        -9.8258   -0.3328   58.9461 C.3     1  ZINC000956479608   -0.1400
     26 O26       -13.7725    1.0811   62.2384 O.3     1  ZINC000956479608    0.1200
     27 N27       -14.9213    0.8616   62.5437 N.2     1  ZINC000956479608   -0.3400
     28 C28       -15.2971   -0.3353   62.1980 C.2     1  ZINC000956479608   -0.0100
     29 H29       -14.3635   -2.3153   59.9585 H       1  ZINC000956479608    0.0800
     30 H30       -13.0573   -2.6974   61.1057 H       1  ZINC000956479608    0.0900
     31 H31       -14.7528   -3.0032   61.5533 H       1  ZINC000956479608    0.0800
     32 H32       -11.9925   -2.0080   60.5330 H       1  ZINC000956479608    0.4100
     33 H33        -9.1846   -1.7740   62.0106 H       1  ZINC000956479608    0.0800
     34 H34        -8.0212   -1.1290   60.8280 H       1  ZINC000956479608    0.0700
     35 H35        -9.2125   -0.0456   61.5864 H       1  ZINC000956479608    0.0600
     36 H36        -8.7754   -2.8306   59.1411 H       1  ZINC000956479608    0.0800
     37 H37        -9.9076   -3.4799   60.3522 H       1  ZINC000956479608    0.1000
     38 H38       -10.5694   -4.0297   57.9833 H       1  ZINC000956479608    0.0900
     39 H39       -11.8049   -3.0835   58.8523 H       1  ZINC000956479608    0.0600
     40 H40        -9.1595    1.4364   55.4261 H       1  ZINC000956479608    0.0700
     41 H41        -7.9284    1.0894   54.1920 H       1  ZINC000956479608    0.0700
     42 H42       -10.9501    1.1345   53.7834 H       1  ZINC000956479608    0.0600
     43 H43        -9.7692    2.3125   53.1532 H       1  ZINC000956479608    0.0700
     44 H44       -10.1975    0.8000   51.3351 H       1  ZINC000956479608    0.0700
     45 H45        -8.6216    0.3029   52.0054 H       1  ZINC000956479608    0.0700
     46 H46       -11.3386   -0.9504   52.5982 H       1  ZINC000956479608    0.0700
     47 H47       -10.0100   -1.6853   51.6741 H       1  ZINC000956479608    0.0700
     48 H48       -10.6353    0.0454   56.9824 H       1  ZINC000956479608    0.0900
     49 H49       -11.8479   -0.4280   58.2002 H       1  ZINC000956479608    0.0700
     50 H50        -9.9748    0.6757   59.3316 H       1  ZINC000956479608    0.0900
     51 H51        -8.8143   -0.4257   58.5504 H       1  ZINC000956479608    0.0900
     52 H52       -16.2699   -0.7771   62.3554 H       1  ZINC000956479608    0.2000
@<TRIPOS>BOND
     1     1     2    1
     2     1    29    1
     3     1    30    1
     4     1    31    1
     5     2    28    1
     6     2     3    2
     7     3     4    1
     8     3    26    1
     9     4     5    2
    10     4     6   am
    11     6     7    1
    12     6    32    1
    13     7    25    1
    14     7     8    1
    15     7     9    1
    16     8    33    1
    17     8    34    1
    18     8    35    1
    19     9    10    1
    20     9    36    1
    21     9    37    1
    22    10    11    1
    23    10    38    1
    24    10    39    1
    25    11    12   am
    26    11    24    1
    27    12    13    2
    28    12    14    1
    29    14    15    1
    30    14    22    1
    31    14    16    1
    32    16    17    1
    33    16    22    1
    34    16    18    1
    35    18    19    1
    36    18    40    1
    37    18    41    1
    38    19    20    1
    39    19    42    1
    40    19    43    1
    41    20    21    1
    42    20    44    1
    43    20    45    1
    44    21    22    1
    45    21    46    1
    46    21    47    1
    47    22    23    1
    48    24    25    1
    49    24    48    1
    50    24    49    1
    51    25    50    1
    52    25    51    1
    53    26    27    1
    54    27    28    2
    55    28    52    1
@<TRIPOS>SUBSTRUCTURE
     1 ZINC000956479608        1 TEMP              0 ****  ****    0 ROOT


##########                                Name:    ZINC000971513996
##########                DOCK_Rotatable_Bonds:                   6
##########                         Heavy_Atoms:                  27
##########                    Molecular_Weight:             369.464
##########                DOCK_Rotatable_Bonds:                   6
##########                       Formal_Charge:          -0.0300002
##########                     HBond_Acceptors:                   6
##########                        HBond_Donors:                   1
##########                         Heavy_Atoms:                  27
##########                          Grid_Score:          -26.513109
##########                     Grid_vdw_energy:          -25.930302
##########                      Grid_es_energy:           -0.582808
##########           Internal_energy_repulsive:           29.562716

@<TRIPOS>MOLECULE
ZINC000971513996
 54 57 1 0 0
SMALL
USER_CHARGES


@<TRIPOS>ATOM
      1 C1        -15.3363   -3.2432   60.0161 C.3     1  ZINC000971513996   -0.1600
      2 C2        -14.9770   -2.2231   58.9338 C.3     1  ZINC000971513996   -0.1400
      3 C3        -13.5358   -2.4529   58.4747 C.3     1  ZINC000971513996    0.0800
      4 H4        -12.8602   -2.3241   59.3203 H       1  ZINC000971513996    0.0800
      5 O5        -13.4059   -3.7792   57.9588 O.3     1  ZINC000971513996   -0.3600
      6 C6        -14.1602   -4.0162   56.7685 C.3     1  ZINC000971513996    0.0200
      7 C7        -13.1872   -1.4585   57.3974 C.2     1  ZINC000971513996    0.5400
      8 O8        -13.9947   -0.6170   57.0646 O.2     1  ZINC000971513996   -0.5100
      9 N9        -11.9781   -1.5041   56.8037 N.am    1  ZINC000971513996   -0.6400
     10 C10       -11.2732   -0.7486   55.7542 C.3     1  ZINC000971513996    0.1000
     11 C11        -9.9558   -1.1202   56.4617 C.3     1  ZINC000971513996   -0.1200
     12 H12        -9.1237   -1.3504   55.7964 H       1  ZINC000971513996    0.1100
     13 C13        -9.6088   -0.1127   57.5606 C.3     1  ZINC000971513996   -0.1200
     14 C14        -8.9949   -0.8562   58.7505 C.3     1  ZINC000971513996    0.1100
     15 N15        -9.9635   -1.8507   59.2195 N.am    1  ZINC000971513996   -0.6000
     16 C16       -10.3729   -1.8315   60.5035 C.2     1  ZINC000971513996    0.5900
     17 O17       -11.1767   -2.6549   60.8980 O.2     1  ZINC000971513996   -0.5200
     18 C18        -9.8477   -0.8152   61.4276 C.2     1  ZINC000971513996    0.0200
     19 C19       -10.4011    0.4049   61.6536 C.2     1  ZINC000971513996   -0.1000
     20 C20        -9.5952    1.0741   62.6063 C.ar    1  ZINC000971513996   -0.1100
     21 C21        -9.6681    2.3347   63.2123 C.ar    1  ZINC000971513996   -0.0600
     22 C22        -8.7180    2.7086   64.1178 C.ar    1  ZINC000971513996   -0.1200
     23 C23        -8.7995    4.0657   64.7681 C.3     1  ZINC000971513996   -0.1100
     24 C24        -7.6769    1.8499   64.4461 C.ar    1  ZINC000971513996   -0.0800
     25 C25        -7.5832    0.6054   63.8639 C.ar    1  ZINC000971513996   -0.1300
     26 C26        -8.5398    0.2013   62.9372 C.ar    1  ZINC000971513996    0.1100
     27 N27        -8.7165   -0.9514   62.2088 N.pl3   1  ZINC000971513996   -0.5800
     28 C28       -10.4879   -2.8599   58.3088 C.3     1  ZINC000971513996    0.0700
     29 C29       -10.7691   -2.3234   56.9153 C.3     1  ZINC000971513996    0.1300
     30 H30       -10.7603   -3.1233   56.1749 H       1  ZINC000971513996    0.1100
     31 H31       -16.3240   -3.0153   60.4168 H       1  ZINC000971513996    0.0600
     32 H32       -15.3413   -4.2442   59.5848 H       1  ZINC000971513996    0.0600
     33 H33       -14.5994   -3.1968   60.8181 H       1  ZINC000971513996    0.0600
     34 H34       -15.6517   -2.3405   58.0858 H       1  ZINC000971513996    0.0800
     35 H35       -15.0734   -1.2154   59.3380 H       1  ZINC000971513996    0.0800
     36 H36       -15.2246   -3.9480   56.9932 H       1  ZINC000971513996    0.0400
     37 H37       -13.8987   -3.2703   56.0180 H       1  ZINC000971513996    0.0500
     38 H38       -13.9326   -5.0114   56.3864 H       1  ZINC000971513996    0.0900
     39 H39       -11.3724   -1.1870   54.7612 H       1  ZINC000971513996    0.0900
     40 H40       -11.4882    0.3199   55.7682 H       1  ZINC000971513996    0.0800
     41 H41        -8.8925    0.6133   57.1760 H       1  ZINC000971513996    0.0900
     42 H42       -10.5143    0.4026   57.8812 H       1  ZINC000971513996    0.0700
     43 H43        -8.0775   -1.3553   58.4384 H       1  ZINC000971513996    0.0800
     44 H44        -8.7756   -0.1502   59.5515 H       1  ZINC000971513996    0.1000
     45 H45       -11.2953    0.7944   61.1899 H       1  ZINC000971513996    0.1500
     46 H46       -10.4740    3.0093   62.9634 H       1  ZINC000971513996    0.1200
     47 H47        -9.3862    3.9951   65.6840 H       1  ZINC000971513996    0.0700
     48 H48        -7.7949    4.4155   65.0060 H       1  ZINC000971513996    0.0600
     49 H49        -9.2764    4.7681   64.0844 H       1  ZINC000971513996    0.0600
     50 H50        -6.9332    2.1613   65.1647 H       1  ZINC000971513996    0.1300
     51 H51        -6.7697   -0.0551   64.1255 H       1  ZINC000971513996    0.1200
     52 H52        -8.1408   -1.7315   62.2379 H       1  ZINC000971513996    0.4200
     53 H53        -9.7597   -3.6663   58.2215 H       1  ZINC000971513996    0.0800
     54 H54       -11.4091   -3.2656   58.7271 H       1  ZINC000971513996    0.1200
@<TRIPOS>BOND
     1     1     2    1
     2     1    31    1
     3     1    32    1
     4     1    33    1
     5     2     3    1
     6     2    34    1
     7     2    35    1
     8     3     4    1
     9     3     5    1
    10     3     7    1
    11     5     6    1
    12     6    36    1
    13     6    37    1
    14     6    38    1
    15     7     8    2
    16     7     9   am
    17     9    29    1
    18     9    10    1
    19    10    11    1
    20    10    39    1
    21    10    40    1
    22    11    12    1
    23    11    29    1
    24    11    13    1
    25    13    14    1
    26    13    41    1
    27    13    42    1
    28    14    15    1
    29    14    43    1
    30    14    44    1
    31    15    16   am
    32    15    28    1
    33    16    17    2
    34    16    18    1
    35    18    27    1
    36    18    19    2
    37    19    20    1
    38    19    45    1
    39    20    26   ar
    40    20    21   ar
    41    21    22   ar
    42    21    46    1
    43    22    23    1
    44    22    24   ar
    45    23    47    1
    46    23    48    1
    47    23    49    1
    48    24    25   ar
    49    24    50    1
    50    25    26   ar
    51    25    51    1
    52    26    27    1
    53    27    52    1
    54    28    29    1
    55    28    53    1
    56    28    54    1
    57    29    30    1
@<TRIPOS>SUBSTRUCTURE
     1 ZINC000971513996        1 TEMP              0 ****  ****    0 ROOT


##########                                Name:    ZINC000302023461
##########                DOCK_Rotatable_Bonds:                   3
##########                         Heavy_Atoms:                  25
##########                    Molecular_Weight:             356.362
##########                DOCK_Rotatable_Bonds:                   3
##########                       Formal_Charge:        -2.08616e-07
##########                     HBond_Acceptors:                   9
##########                        HBond_Donors:                   1
##########                         Heavy_Atoms:                  25
##########                          Grid_Score:          -26.497570
##########                     Grid_vdw_energy:          -25.895161
##########                      Grid_es_energy:           -0.602410
##########           Internal_energy_repulsive:           20.817036

@<TRIPOS>MOLECULE
ZINC000302023461
 37 40 1 0 0
SMALL
USER_CHARGES


@<TRIPOS>ATOM
      1 O1        -12.7444    1.3572   61.6483 O.2     1  ZINC000302023461   -0.1600
      2 N2        -12.4312    0.3396   61.0567 N.pl3   1  ZINC000302023461    0.0200
      3 O3        -13.2850   -0.3316   60.5054 O.2     1  ZINC000302023461   -0.1300
      4 C4        -11.0120   -0.0780   61.0028 C.ar    1  ZINC000302023461    0.0000
      5 C5        -10.0435    0.6822   61.6273 C.ar    1  ZINC000302023461   -0.0600
      6 C6         -8.7172    0.2927   61.5774 C.ar    1  ZINC000302023461   -0.0900
      7 C7         -8.3564   -0.8591   60.9025 C.ar    1  ZINC000302023461   -0.0800
      8 C8         -9.3198   -1.6245   60.2754 C.ar    1  ZINC000302023461   -0.0500
      9 C9        -10.6537   -1.2391   60.3279 C.ar    1  ZINC000302023461   -0.1100
     10 S10       -11.8863   -2.2128   59.5298 S.3     1  ZINC000302023461    0.1900
     11 C11       -11.3714   -2.2008   57.8448 C.2     1  ZINC000302023461    0.2100
     12 N12       -11.9348   -2.8778   56.8708 N.2     1  ZINC000302023461   -0.3200
     13 N13       -11.2176   -2.5842   55.6997 N.pl3   1  ZINC000302023461   -0.4700
     14 C14       -10.2389   -1.7225   56.0576 C.2     1  ZINC000302023461    0.3500
     15 C15        -9.2277   -1.1309   55.1552 C.ar    1  ZINC000302023461   -0.0400
     16 C16        -8.2872   -0.2291   55.6539 C.ar    1  ZINC000302023461   -0.0900
     17 C17        -7.3465    0.3224   54.8099 C.ar    1  ZINC000302023461   -0.1100
     18 C18        -7.3307   -0.0159   53.4633 C.ar    1  ZINC000302023461    0.0800
     19 O19        -6.3987    0.5471   52.6471 O.3     1  ZINC000302023461   -0.3000
     20 C20        -6.1751   -0.0936   51.3865 C.3     1  ZINC000302023461    0.0200
     21 C21        -7.5393   -0.4023   50.7552 C.3     1  ZINC000302023461    0.0200
     22 O22        -8.2596   -1.2633   51.6437 O.3     1  ZINC000302023461   -0.3000
     23 C23        -8.2644   -0.9175   52.9604 C.ar    1  ZINC000302023461    0.0500
     24 C24        -9.2079   -1.4774   53.8036 C.ar    1  ZINC000302023461   -0.0500
     25 N25       -10.3495   -1.4978   57.3520 N.2     1  ZINC000302023461   -0.5000
     26 H26       -10.3219    1.5823   62.1554 H       1  ZINC000302023461    0.1600
     27 H27        -7.9616    0.8896   62.0664 H       1  ZINC000302023461    0.1500
     28 H28        -7.3199   -1.1603   60.8656 H       1  ZINC000302023461    0.1500
     29 H29        -9.0372   -2.5235   59.7479 H       1  ZINC000302023461    0.1600
     30 H30       -11.3899   -2.9310   54.8103 H       1  ZINC000302023461    0.4400
     31 H31        -8.2961    0.0372   56.7006 H       1  ZINC000302023461    0.1300
     32 H32        -6.6192    1.0204   55.1977 H       1  ZINC000302023461    0.1500
     33 H33        -5.6090    0.5696   50.7325 H       1  ZINC000302023461    0.1300
     34 H34        -5.6222   -1.0206   51.5384 H       1  ZINC000302023461    0.0800
     35 H35        -8.0952    0.5240   50.6098 H       1  ZINC000302023461    0.0800
     36 H36        -7.3964   -0.9002   49.7961 H       1  ZINC000302023461    0.1300
     37 H37        -9.9312   -2.1790   53.4150 H       1  ZINC000302023461    0.1600
@<TRIPOS>BOND
     1     1     2    2
     2     2     3    2
     3     2     4    1
     4     4     9   ar
     5     4     5   ar
     6     5     6   ar
     7     5    26    1
     8     6     7   ar
     9     6    27    1
    10     7     8   ar
    11     7    28    1
    12     8     9   ar
    13     8    29    1
    14     9    10    1
    15    10    11    1
    16    11    25    1
    17    11    12    2
    18    12    13    1
    19    13    14    1
    20    13    30    1
    21    14    15    1
    22    14    25    2
    23    15    24   ar
    24    15    16   ar
    25    16    17   ar
    26    16    31    1
    27    17    18   ar
    28    17    32    1
    29    18    23   ar
    30    18    19    1
    31    19    20    1
    32    20    21    1
    33    20    33    1
    34    20    34    1
    35    21    22    1
    36    21    35    1
    37    21    36    1
    38    22    23    1
    39    23    24   ar
    40    24    37    1
@<TRIPOS>SUBSTRUCTURE
     1 ZINC000302023461        1 TEMP              0 ****  ****    0 ROOT


##########                                Name:    ZINC000132775118
##########                DOCK_Rotatable_Bonds:                   5
##########                         Heavy_Atoms:                  27
##########                    Molecular_Weight:             376.499
##########                DOCK_Rotatable_Bonds:                   5
##########                       Formal_Charge:        -4.76837e-07
##########                     HBond_Acceptors:                   7
##########                        HBond_Donors:                   1
##########                         Heavy_Atoms:                  27
##########                          Grid_Score:          -26.419224
##########                     Grid_vdw_energy:          -26.422010
##########                      Grid_es_energy:            0.002787
##########           Internal_energy_repulsive:           22.466358

@<TRIPOS>MOLECULE
ZINC000132775118
 59 62 1 0 0
SMALL
USER_CHARGES


@<TRIPOS>ATOM
      1 O1        -10.0106   -3.7692   58.9397 O.2     1  ZINC000132775118   -0.5200
      2 C2        -10.0727   -2.5685   58.7808 C.2     1  ZINC000132775118    0.5200
      3 C3         -9.6130   -1.6389   59.8743 C.3     1  ZINC000132775118    0.0300
      4 N4        -10.7786   -0.9821   60.4808 N.3     1  ZINC000132775118   -0.5100
      5 C5        -11.8759   -1.9393   60.6844 C.3     1  ZINC000132775118    0.0300
      6 C6        -12.9758   -1.3190   61.4969 C.2     1  ZINC000132775118    0.5300
      7 O7        -14.0594   -1.8637   61.5120 O.2     1  ZINC000132775118   -0.5500
      8 N8        -12.8182   -0.1934   62.2065 N.am    1  ZINC000132775118   -0.7200
      9 C9        -11.5720    0.5602   62.1898 C.3     1  ZINC000132775118    0.1500
     10 H10       -11.6628    1.3785   61.4754 H       1  ZINC000132775118    0.0800
     11 C11       -11.2453    1.1372   63.5653 C.3     1  ZINC000132775118   -0.1300
     12 C12        -9.9615    1.9669   63.4623 C.3     1  ZINC000132775118   -0.1200
     13 C13        -8.8093    1.0881   62.9748 C.3     1  ZINC000132775118   -0.1200
     14 C14        -9.1516    0.4859   61.6084 C.3     1  ZINC000132775118   -0.1200
     15 C15       -10.4222   -0.3518   61.7569 C.3     1  ZINC000132775118    0.0700
     16 H16       -10.2573   -1.1303   62.5017 H       1  ZINC000132775118    0.0600
     17 N17       -10.5475   -2.0655   57.6240 N.am    1  ZINC000132775118   -0.6200
     18 C18       -10.6176   -0.6133   57.4120 C.3     1  ZINC000132775118    0.1100
     19 C19        -9.8912   -0.2699   56.1076 C.3     1  ZINC000132775118   -0.1200
     20 C20       -10.4811   -1.1009   54.9660 C.3     1  ZINC000132775118   -0.1000
     21 C21        -9.7919   -0.7410   53.6749 C.2     1  ZINC000132775118    0.5300
     22 O22        -8.8224   -1.3710   53.3089 O.2     1  ZINC000132775118   -0.5300
     23 N23       -10.2531    0.2810   52.9272 N.am    1  ZINC000132775118   -0.6200
     24 C24        -9.6833    0.7331   51.6494 C.3     1  ZINC000132775118    0.1000
     25 C25       -10.5198    1.9407   51.1765 C.3     1  ZINC000132775118   -0.1300
     26 C26       -11.1620    2.4552   52.4919 C.3     1  ZINC000132775118   -0.1300
     27 C27       -11.4162    1.1267   53.2517 C.3     1  ZINC000132775118    0.1000
     28 C28       -10.2744   -2.5892   55.2565 C.3     1  ZINC000132775118   -0.1200
     29 C29       -10.9994   -2.9590   56.5489 C.3     1  ZINC000132775118    0.1200
     30 H30        -9.0800   -2.2087   60.6353 H       1  ZINC000132775118    0.0700
     31 H31        -8.9485   -0.8839   59.4538 H       1  ZINC000132775118    0.1200
     32 H32       -12.2725   -2.2426   59.7154 H       1  ZINC000132775118    0.1300
     33 H33       -11.4948   -2.8169   61.2064 H       1  ZINC000132775118    0.0700
     34 H34       -13.5561    0.1293   62.7473 H       1  ZINC000132775118    0.4000
     35 H35       -12.0654    1.7732   63.8987 H       1  ZINC000132775118    0.0800
     36 H36       -11.0988    0.3245   64.2768 H       1  ZINC000132775118    0.0700
     37 H37       -10.1150    2.7853   62.7588 H       1  ZINC000132775118    0.0700
     38 H38        -9.7152    2.3757   64.4423 H       1  ZINC000132775118    0.0700
     39 H39        -7.9057    1.6915   62.8881 H       1  ZINC000132775118    0.0700
     40 H40        -8.6386    0.2849   63.6917 H       1  ZINC000132775118    0.0600
     41 H41        -9.3127    1.2866   60.8866 H       1  ZINC000132775118    0.0800
     42 H42        -8.3322   -0.1503   61.2741 H       1  ZINC000132775118    0.0700
     43 H43       -11.6604   -0.3042   57.3419 H       1  ZINC000132775118    0.0800
     44 H44       -10.1369   -0.0989   58.2442 H       1  ZINC000132775118    0.0900
     45 H45       -10.0180    0.7904   55.8890 H       1  ZINC000132775118    0.0800
     46 H46        -8.8300   -0.4961   56.2117 H       1  ZINC000132775118    0.0800
     47 H47       -11.5475   -0.8929   54.8787 H       1  ZINC000132775118    0.0900
     48 H48        -8.6455    1.0342   51.7922 H       1  ZINC000132775118    0.0700
     49 H49        -9.7410   -0.0688   50.9135 H       1  ZINC000132775118    0.0700
     50 H50        -9.8793    2.7045   50.7356 H       1  ZINC000132775118    0.0800
     51 H51       -11.2878    1.6250   50.4702 H       1  ZINC000132775118    0.0800
     52 H52       -10.4710    3.0962   53.0393 H       1  ZINC000132775118    0.0800
     53 H53       -12.0993    2.9744   52.2920 H       1  ZINC000132775118    0.0900
     54 H54       -12.3388    0.6617   52.9044 H       1  ZINC000132775118    0.0700
     55 H55       -11.4621    1.3069   54.3257 H       1  ZINC000132775118    0.0800
     56 H56       -10.6738   -3.1798   54.4320 H       1  ZINC000132775118    0.0800
     57 H57        -9.2096   -2.7936   55.3685 H       1  ZINC000132775118    0.0800
     58 H58       -10.7736   -3.9925   56.8116 H       1  ZINC000132775118    0.1000
     59 H59       -12.0742   -2.8413   56.4113 H       1  ZINC000132775118    0.0700
@<TRIPOS>BOND
     1     1     2    2
     2     2     3    1
     3     2    17   am
     4     3     4    1
     5     3    30    1
     6     3    31    1
     7     4    15    1
     8     4     5    1
     9     5     6    1
    10     5    32    1
    11     5    33    1
    12     6     7    2
    13     6     8   am
    14     8     9    1
    15     8    34    1
    16     9    10    1
    17     9    15    1
    18     9    11    1
    19    11    12    1
    20    11    35    1
    21    11    36    1
    22    12    13    1
    23    12    37    1
    24    12    38    1
    25    13    14    1
    26    13    39    1
    27    13    40    1
    28    14    15    1
    29    14    41    1
    30    14    42    1
    31    15    16    1
    32    17    29    1
    33    17    18    1
    34    18    19    1
    35    18    43    1
    36    18    44    1
    37    19    20    1
    38    19    45    1
    39    19    46    1
    40    20    21    1
    41    20    28    1
    42    20    47    1
    43    21    22    2
    44    21    23   am
    45    23    27    1
    46    23    24    1
    47    24    25    1
    48    24    48    1
    49    24    49    1
    50    25    26    1
    51    25    50    1
    52    25    51    1
    53    26    27    1
    54    26    52    1
    55    26    53    1
    56    27    54    1
    57    27    55    1
    58    28    29    1
    59    28    56    1
    60    28    57    1
    61    29    58    1
    62    29    59    1
@<TRIPOS>SUBSTRUCTURE
     1 ZINC000132775118        1 TEMP              0 ****  ****    0 ROOT


##########                                Name:    ZINC000836820897
##########                DOCK_Rotatable_Bonds:                   5
##########                         Heavy_Atoms:                  22
##########                    Molecular_Weight:             330.355
##########                DOCK_Rotatable_Bonds:                   5
##########                       Formal_Charge:          -0.0200003
##########                     HBond_Acceptors:                   8
##########                        HBond_Donors:                   1
##########                         Heavy_Atoms:                  22
##########                          Grid_Score:          -26.410273
##########                     Grid_vdw_energy:          -27.172937
##########                      Grid_es_energy:            0.762664
##########           Internal_energy_repulsive:            7.038341

@<TRIPOS>MOLECULE
ZINC000836820897
 38 40 1 0 0
SMALL
USER_CHARGES


@<TRIPOS>ATOM
      1 O1         -1.0901   -1.4179   48.0394 O.2     1  ZINC000836820897   -0.5200
      2 C2         -1.2818   -0.2194   47.9700 C.2     1  ZINC000836820897    0.5800
      3 C3         -1.2788    0.6015   49.1982 C.ar    1  ZINC000836820897   -0.1600
      4 C4         -0.0997    0.7670   49.9274 C.ar    1  ZINC000836820897   -0.0100
      5 C5         -0.1025    1.5345   51.0726 C.ar    1  ZINC000836820897   -0.1700
      6 C6         -1.2731    2.1413   51.5005 C.ar    1  ZINC000836820897    0.2200
      7 F7         -1.2703    2.8925   52.6235 F       1  ZINC000836820897   -0.1100
      8 C8         -2.4469    1.9806   50.7797 C.ar    1  ZINC000836820897   -0.7200
      9 S9         -3.9301    2.7565   51.3302 S.o2    1  ZINC000836820897    2.7000
     10 O10        -3.9436    2.6374   52.7461 O.2     1  ZINC000836820897   -0.9400
     11 O11        -4.0049    4.0043   50.6545 O.2     1  ZINC000836820897   -0.9400
     12 N12        -5.1958    1.8458   50.7723 N.am    1  ZINC000836820897   -1.0800
     13 C13        -5.3199    0.4418   51.1714 C.3     1  ZINC000836820897    0.0700
     14 C14        -6.1331    0.1344   52.4304 C.3     1  ZINC000836820897   -0.1800
     15 C15        -6.7001   -0.2075   51.0512 C.3     1  ZINC000836820897   -0.1900
     16 C16        -2.4542    1.2195   49.6308 C.ar    1  ZINC000836820897    0.0600
     17 N17        -1.4914    0.3613   46.7719 N.am    1  ZINC000836820897   -0.6200
     18 C18        -1.7230    1.7950   46.5434 C.3     1  ZINC000836820897    0.0900
     19 C19        -1.8831    1.9965   45.0217 C.3     1  ZINC000836820897   -0.1600
     20 C20        -1.1703    0.7520   44.4295 C.3     1  ZINC000836820897    0.0800
     21 H21        -0.0926    0.9067   44.3780 H       1  ZINC000836820897    0.1100
     22 F22        -1.6887    0.4289   43.1710 F       1  ZINC000836820897   -0.1900
     23 C23        -1.5203   -0.3352   45.4728 C.3     1  ZINC000836820897    0.0800
     24 H24         0.8128    0.2943   49.5951 H       1  ZINC000836820897    0.1500
     25 H25         0.8090    1.6629   51.6377 H       1  ZINC000836820897    0.1600
     26 H26        -5.8550    2.2422   50.1812 H       1  ZINC000836820897    0.4200
     27 H27        -4.4503   -0.1833   50.9685 H       1  ZINC000836820897    0.1400
     28 H28        -5.7984   -0.6929   53.0562 H       1  ZINC000836820897    0.1100
     29 H29        -6.5757    0.9770   52.9618 H       1  ZINC000836820897    0.1000
     30 H30        -7.5158    0.4100   50.6750 H       1  ZINC000836820897    0.1000
     31 H31        -6.7384   -1.2598   50.7694 H       1  ZINC000836820897    0.1000
     32 H32        -3.3689    1.0951   49.0701 H       1  ZINC000836820897    0.1600
     33 H33        -2.6314    2.1102   47.0567 H       1  ZINC000836820897    0.0800
     34 H34        -0.8712    2.3705   46.9060 H       1  ZINC000836820897    0.0800
     35 H35        -2.9367    2.0066   44.7428 H       1  ZINC000836820897    0.0900
     36 H36        -1.3890    2.9133   44.7000 H       1  ZINC000836820897    0.1000
     37 H37        -0.7797   -1.1347   45.4507 H       1  ZINC000836820897    0.1000
     38 H38        -2.5168   -0.7347   45.2847 H       1  ZINC000836820897    0.0900
@<TRIPOS>BOND
     1     1     2    2
     2     2     3    1
     3     2    17   am
     4     3    16   ar
     5     3     4   ar
     6     4     5   ar
     7     4    24    1
     8     5     6   ar
     9     5    25    1
    10     6     7    1
    11     6     8   ar
    12     8     9    1
    13     8    16   ar
    14     9    10    2
    15     9    11    2
    16     9    12   am
    17    12    13    1
    18    12    26    1
    19    13    15    1
    20    13    14    1
    21    13    27    1
    22    14    15    1
    23    14    28    1
    24    14    29    1
    25    15    30    1
    26    15    31    1
    27    16    32    1
    28    17    23    1
    29    17    18    1
    30    18    19    1
    31    18    33    1
    32    18    34    1
    33    19    20    1
    34    19    35    1
    35    19    36    1
    36    20    21    1
    37    20    22    1
    38    20    23    1
    39    23    37    1
    40    23    38    1
@<TRIPOS>SUBSTRUCTURE
     1 ZINC000836820897        1 TEMP              0 ****  ****    0 ROOT


##########                                Name:    ZINC000187810810
##########                DOCK_Rotatable_Bonds:                   7
##########                         Heavy_Atoms:                  27
##########                    Molecular_Weight:             386.414
##########                DOCK_Rotatable_Bonds:                   7
##########                       Formal_Charge:           0.0599998
##########                     HBond_Acceptors:                   8
##########                        HBond_Donors:                   1
##########                         Heavy_Atoms:                  27
##########                          Grid_Score:          -26.372116
##########                     Grid_vdw_energy:          -25.912119
##########                      Grid_es_energy:           -0.459997
##########           Internal_energy_repulsive:           49.801029

@<TRIPOS>MOLECULE
ZINC000187810810
 52 53 1 0 0
SMALL
USER_CHARGES


@<TRIPOS>ATOM
      1 C1         -9.7359    0.9773   52.4503 C.3     1  ZINC000187810810   -0.1800
      2 C2         -9.2715   -0.3189   53.1175 C.3     1  ZINC000187810810    0.1400
      3 C3         -8.3853   -1.1027   52.1474 C.3     1  ZINC000187810810   -0.1800
      4 C4         -8.4745    0.0147   54.3802 C.3     1  ZINC000187810810   -0.1400
      5 O5        -10.4280   -1.1216   53.4730 O.3     1  ZINC000187810810   -0.3600
      6 C6        -10.2904   -1.9648   54.5135 C.2     1  ZINC000187810810    0.6500
      7 O7         -9.6162   -2.9691   54.3965 O.2     1  ZINC000187810810   -0.5600
      8 N8        -10.9002   -1.6952   55.6847 N.am    1  ZINC000187810810   -0.6000
      9 C9        -10.7530   -2.6019   56.8315 C.3     1  ZINC000187810810    0.1100
     10 C10       -12.1466   -2.9887   57.3364 C.3     1  ZINC000187810810   -0.1400
     11 C11       -12.9462   -1.7189   57.6376 C.3     1  ZINC000187810810    0.1800
     12 C12       -14.3268   -2.1014   58.1749 C.3     1  ZINC000187810810   -0.1600
     13 N13       -12.2360   -0.9213   58.6404 N.am    1  ZINC000187810810   -0.7100
     14 C14       -11.9688   -1.4458   59.8528 C.2     1  ZINC000187810810    0.5500
     15 O15       -12.3185   -2.5801   60.1148 O.2     1  ZINC000187810810   -0.5100
     16 C16       -11.2505   -0.6415   60.8643 C.ar    1  ZINC000187810810   -0.0900
     17 C17       -11.9584    0.2069   61.7168 C.ar    1  ZINC000187810810   -0.0900
     18 C18       -11.2820    0.9545   62.6588 C.ar    1  ZINC000187810810   -0.0900
     19 C19        -9.9052    0.8648   62.7590 C.ar    1  ZINC000187810810   -0.0900
     20 C20        -9.1972    0.0258   61.9164 C.ar    1  ZINC000187810810   -0.0800
     21 C21        -9.8618   -0.7316   60.9745 C.ar    1  ZINC000187810810   -0.1300
     22 C22        -9.0893   -1.6451   60.0580 C.3     1  ZINC000187810810    0.5200
     23 F23        -8.9395   -1.0339   58.8084 F       1  ZINC000187810810   -0.1800
     24 F24        -7.8279   -1.8988   60.6072 F       1  ZINC000187810810   -0.1600
     25 F25        -9.7834   -2.8504   59.9073 F       1  ZINC000187810810   -0.1600
     26 C26       -13.1073   -0.8993   56.3552 C.3     1  ZINC000187810810   -0.1500
     27 C27       -11.7200   -0.4860   55.8409 C.3     1  ZINC000187810810    0.1300
     28 H28       -10.3036    0.7397   51.5507 H       1  ZINC000187810810    0.0900
     29 H29       -10.3671    1.5357   53.1415 H       1  ZINC000187810810    0.0600
     30 H30        -8.8677    1.5799   52.1835 H       1  ZINC000187810810    0.0700
     31 H31        -7.5171   -0.5002   51.8805 H       1  ZINC000187810810    0.0700
     32 H32        -8.0543   -2.0261   52.6227 H       1  ZINC000187810810    0.0600
     33 H33        -8.9531   -1.3404   51.2477 H       1  ZINC000187810810    0.0900
     34 H34        -9.1058    0.5731   55.0714 H       1  ZINC000187810810    0.0700
     35 H35        -8.1437   -0.9087   54.8555 H       1  ZINC000187810810    0.0700
     36 H36        -7.6063    0.6173   54.1134 H       1  ZINC000187810810    0.0800
     37 H37       -10.2147   -3.4978   56.5222 H       1  ZINC000187810810    0.1000
     38 H38       -10.2028   -2.0988   57.6267 H       1  ZINC000187810810    0.0700
     39 H39       -12.6619   -3.5704   56.5722 H       1  ZINC000187810810    0.0900
     40 H40       -12.0523   -3.5832   58.2450 H       1  ZINC000187810810    0.0900
     41 H41       -14.2122   -2.6842   59.0889 H       1  ZINC000187810810    0.0600
     42 H42       -14.8964   -1.1972   58.3895 H       1  ZINC000187810810    0.0800
     43 H43       -14.8551   -2.6953   57.4291 H       1  ZINC000187810810    0.0700
     44 H44       -11.9580   -0.0157   58.4318 H       1  ZINC000187810810    0.4000
     45 H45       -13.0333    0.2783   61.6391 H       1  ZINC000187810810    0.1400
     46 H46       -11.8286    1.6115   63.3191 H       1  ZINC000187810810    0.1400
     47 H47        -9.3805    1.4523   63.4977 H       1  ZINC000187810810    0.1400
     48 H48        -8.1224   -0.0393   61.9995 H       1  ZINC000187810810    0.1500
     49 H49       -13.6136   -1.5008   55.6002 H       1  ZINC000187810810    0.0800
     50 H50       -13.6967   -0.0068   56.5656 H       1  ZINC000187810810    0.1000
     51 H51       -11.2514    0.1897   56.5565 H       1  ZINC000187810810    0.0700
     52 H52       -11.8213    0.0124   54.8768 H       1  ZINC000187810810    0.1000
@<TRIPOS>BOND
     1     1     2    1
     2     1    28    1
     3     1    29    1
     4     1    30    1
     5     2     3    1
     6     2     4    1
     7     2     5    1
     8     3    31    1
     9     3    32    1
    10     3    33    1
    11     4    34    1
    12     4    35    1
    13     4    36    1
    14     5     6    1
    15     6     7    2
    16     6     8   am
    17     8    27    1
    18     8     9    1
    19     9    10    1
    20     9    37    1
    21     9    38    1
    22    10    11    1
    23    10    39    1
    24    10    40    1
    25    11    12    1
    26    11    13    1
    27    11    26    1
    28    12    41    1
    29    12    42    1
    30    12    43    1
    31    13    14   am
    32    13    44    1
    33    14    15    2
    34    14    16    1
    35    16    21   ar
    36    16    17   ar
    37    17    18   ar
    38    17    45    1
    39    18    19   ar
    40    18    46    1
    41    19    20   ar
    42    19    47    1
    43    20    21   ar
    44    20    48    1
    45    21    22    1
    46    22    23    1
    47    22    24    1
    48    22    25    1
    49    26    27    1
    50    26    49    1
    51    26    50    1
    52    27    51    1
    53    27    52    1
@<TRIPOS>SUBSTRUCTURE
     1 ZINC000187810810        1 TEMP              0 ****  ****    0 ROOT


##########                                Name:    ZINC000506156755
##########                DOCK_Rotatable_Bonds:                   7
##########                         Heavy_Atoms:                  30
##########                    Molecular_Weight:             400.434
##########                DOCK_Rotatable_Bonds:                   7
##########                       Formal_Charge:          -0.0200001
##########                     HBond_Acceptors:                   6
##########                        HBond_Donors:                   1
##########                         Heavy_Atoms:                  30
##########                          Grid_Score:          -26.344175
##########                     Grid_vdw_energy:          -24.897995
##########                      Grid_es_energy:           -1.446180
##########           Internal_energy_repulsive:           14.012365

@<TRIPOS>MOLECULE
ZINC000506156755
 50 53 1 0 0
SMALL
USER_CHARGES


@<TRIPOS>ATOM
      1 C1        -10.3736    1.9759   55.9608 C.3     1  ZINC000506156755   -0.1600
      2 C2        -10.8325    0.6646   55.3201 C.3     1  ZINC000506156755    0.1900
      3 H3        -11.8576    0.7725   54.9658 H       1  ZINC000506156755    0.1000
      4 N4        -10.7692   -0.4119   56.3118 N.am    1  ZINC000506156755   -0.7200
      5 C5        -11.0101   -1.6849   55.9408 C.2     1  ZINC000506156755    0.5000
      6 O6        -11.2808   -1.9392   54.7863 O.2     1  ZINC000506156755   -0.5200
      7 C7        -10.9432   -2.7925   56.9606 C.3     1  ZINC000506156755    0.0900
      8 N8        -12.1531   -2.7697   57.7863 N.am    1  ZINC000506156755   -0.5600
      9 C9        -12.3428   -1.9500   58.8361 C.2     1  ZINC000506156755    0.5800
     10 O10       -11.5505   -1.1246   59.2432 O.2     1  ZINC000506156755   -0.4600
     11 C11       -13.6773   -2.2218   59.4107 C.ar    1  ZINC000506156755   -0.1400
     12 C12       -14.3972   -1.7014   60.4736 C.ar    1  ZINC000506156755   -0.0400
     13 C13       -15.6626   -2.1943   60.7537 C.ar    1  ZINC000506156755   -0.0900
     14 C14       -16.2096   -3.2002   59.9801 C.ar    1  ZINC000506156755   -0.0900
     15 C15       -15.5007   -3.7306   58.9131 C.ar    1  ZINC000506156755   -0.0400
     16 C16       -14.2354   -3.2481   58.6215 C.ar    1  ZINC000506156755   -0.1400
     17 C17       -13.2229   -3.5616   57.5910 C.2     1  ZINC000506156755    0.5800
     18 O18       -13.3370   -4.3957   56.7158 O.2     1  ZINC000506156755   -0.4600
     19 C19        -9.9321    0.3310   54.1585 C.ar    1  ZINC000506156755   -0.1200
     20 C20        -8.6222   -0.0436   54.3846 C.ar    1  ZINC000506156755   -0.0800
     21 C21        -7.7955   -0.3502   53.3193 C.ar    1  ZINC000506156755   -0.1400
     22 C22        -8.2778   -0.2829   52.0253 C.ar    1  ZINC000506156755   -0.0800
     23 C23        -9.5874    0.0912   51.7935 C.ar    1  ZINC000506156755   -0.1900
     24 C24       -10.4203    0.3943   52.8609 C.ar    1  ZINC000506156755    0.1300
     25 O25       -11.7089    0.7622   52.6357 O.3     1  ZINC000506156755   -0.2500
     26 C26       -11.9847    1.4579   51.5016 C.ar    1  ZINC000506156755    0.0800
     27 C27       -11.3301    2.6537   51.2431 C.ar    1  ZINC000506156755   -0.1400
     28 C28       -11.6125    3.3591   50.0895 C.ar    1  ZINC000506156755   -0.1000
     29 C29       -12.5467    2.8745   49.1927 C.ar    1  ZINC000506156755   -0.1200
     30 C30       -13.2006    1.6832   49.4478 C.ar    1  ZINC000506156755   -0.1000
     31 C31       -12.9177    0.9710   50.5971 C.ar    1  ZINC000506156755   -0.1200
     32 H32       -11.0248    2.2172   56.8010 H       1  ZINC000506156755    0.0700
     33 H33        -9.3485    1.8681   56.3150 H       1  ZINC000506156755    0.0600
     34 H34       -10.4207    2.7769   55.2229 H       1  ZINC000506156755    0.0700
     35 H35       -10.5538   -0.2083   57.2355 H       1  ZINC000506156755    0.4000
     36 H36       -10.8699   -3.7526   56.4499 H       1  ZINC000506156755    0.1300
     37 H37       -10.0680   -2.6503   57.5945 H       1  ZINC000506156755    0.1300
     38 H38       -13.9745   -0.9154   61.0818 H       1  ZINC000506156755    0.1400
     39 H39       -16.2244   -1.7894   61.5825 H       1  ZINC000506156755    0.1400
     40 H40       -17.1959   -3.5761   60.2085 H       1  ZINC000506156755    0.1400
     41 H41       -15.9333   -4.5165   58.3116 H       1  ZINC000506156755    0.1400
     42 H42        -8.2428   -0.0966   55.3945 H       1  ZINC000506156755    0.1300
     43 H43        -6.7714   -0.6425   53.4983 H       1  ZINC000506156755    0.1300
     44 H44        -7.6301   -0.5226   51.1949 H       1  ZINC000506156755    0.1300
     45 H45        -9.9635    0.1441   50.7826 H       1  ZINC000506156755    0.1300
     46 H46       -10.6006    3.0328   51.9434 H       1  ZINC000506156755    0.1300
     47 H47       -11.1034    4.2901   49.8880 H       1  ZINC000506156755    0.1300
     48 H48       -12.7664    3.4277   48.2914 H       1  ZINC000506156755    0.1300
     49 H49       -13.9299    1.3069   48.7457 H       1  ZINC000506156755    0.1300
     50 H50       -13.4284    0.0404   50.7959 H       1  ZINC000506156755    0.1300
@<TRIPOS>BOND
     1     1     2    1
     2     1    32    1
     3     1    33    1
     4     1    34    1
     5     2     3    1
     6     2     4    1
     7     2    19    1
     8     4     5   am
     9     4    35    1
    10     5     6    2
    11     5     7    1
    12     7     8    1
    13     7    36    1
    14     7    37    1
    15     8    17   am
    16     8     9   am
    17     9    10    2
    18     9    11    1
    19    11    16   ar
    20    11    12   ar
    21    12    13   ar
    22    12    38    1
    23    13    14   ar
    24    13    39    1
    25    14    15   ar
    26    14    40    1
    27    15    16   ar
    28    15    41    1
    29    16    17    1
    30    17    18    2
    31    19    24   ar
    32    19    20   ar
    33    20    21   ar
    34    20    42    1
    35    21    22   ar
    36    21    43    1
    37    22    23   ar
    38    22    44    1
    39    23    24   ar
    40    23    45    1
    41    24    25    1
    42    25    26    1
    43    26    31   ar
    44    26    27   ar
    45    27    28   ar
    46    27    46    1
    47    28    29   ar
    48    28    47    1
    49    29    30   ar
    50    29    48    1
    51    30    31   ar
    52    30    49    1
    53    31    50    1
@<TRIPOS>SUBSTRUCTURE
     1 ZINC000506156755        1 TEMP              0 ****  ****    0 ROOT


##########                                Name:    ZINC001064463188
##########                DOCK_Rotatable_Bonds:                   6
##########                         Heavy_Atoms:                  25
##########                    Molecular_Weight:             342.441
##########                DOCK_Rotatable_Bonds:                   6
##########                       Formal_Charge:          -0.0100004
##########                     HBond_Acceptors:                   6
##########                        HBond_Donors:                   0
##########                         Heavy_Atoms:                  25
##########                          Grid_Score:          -26.318733
##########                     Grid_vdw_energy:          -25.887913
##########                      Grid_es_energy:           -0.430820
##########           Internal_energy_repulsive:           15.367311

@<TRIPOS>MOLECULE
ZINC001064463188
 51 54 1 0 0
SMALL
USER_CHARGES


@<TRIPOS>ATOM
      1 C1         -7.5245    0.1605   64.9852 C.3     1  ZINC001064463188    0.0400
      2 O2         -8.8118    0.5845   65.4379 O.3     1  ZINC001064463188   -0.3000
      3 C3         -9.7988    0.6504   64.5116 C.ar    1  ZINC001064463188    0.3900
      4 C4        -11.0817    1.0582   64.8735 C.ar    1  ZINC001064463188   -0.2800
      5 C5        -12.0577    1.1106   63.8959 C.ar    1  ZINC001064463188    0.2000
      6 N6        -11.7479    0.7744   62.6531 N.ar    1  ZINC001064463188   -0.5800
      7 C7        -10.5195    0.3905   62.3384 C.ar    1  ZINC001064463188    0.5300
      8 N8        -10.2343    0.0474   61.0283 N.3     1  ZINC001064463188   -0.4500
      9 C9        -10.3524    1.2061   60.1461 C.3     1  ZINC001064463188    0.0700
     10 C10       -11.0916    0.8178   58.8601 C.3     1  ZINC001064463188   -0.1200
     11 C11       -10.2864   -0.1466   58.0101 C.3     1  ZINC001064463188    0.1400
     12 H12       -10.8660   -0.4445   57.1363 H       1  ZINC001064463188    0.0900
     13 C13        -8.9557    0.4663   57.5689 C.3     1  ZINC001064463188   -0.1300
     14 C14        -7.9748    0.0925   58.6942 C.3     1  ZINC001064463188   -0.1300
     15 C15        -8.6642   -1.0349   59.4706 C.3     1  ZINC001064463188    0.1200
     16 H16        -8.0390   -1.9276   59.4548 H       1  ZINC001064463188    0.0900
     17 C17        -8.9023   -0.6050   60.9264 C.3     1  ZINC001064463188    0.0600
     18 N18        -9.9804   -1.3421   58.8495 N.am    1  ZINC001064463188   -0.6000
     19 C19       -10.7236   -2.4541   59.0154 C.2     1  ZINC001064463188    0.5800
     20 O20       -10.3288   -3.3466   59.7412 O.2     1  ZINC001064463188   -0.5400
     21 C21       -12.0121   -2.5885   58.3187 C.2     1  ZINC001064463188   -0.2200
     22 C22       -13.1498   -2.4172   58.9859 C.2     1  ZINC001064463188    0.0000
     23 C23       -13.1188   -2.0855   60.4556 C.3     1  ZINC001064463188   -0.1300
     24 C24       -14.4699   -2.5548   58.2722 C.3     1  ZINC001064463188   -0.1200
     25 C25       -14.7531   -3.8788   57.5596 C.3     1  ZINC001064463188   -0.1900
     26 C26       -15.4898   -3.5347   58.8557 C.3     1  ZINC001064463188   -0.1600
     27 N27        -9.5560    0.3327   63.2457 N.ar    1  ZINC001064463188   -0.5900
     28 H28        -7.1633    0.8487   64.2208 H       1  ZINC001064463188    0.0600
     29 H29        -6.8288    0.1520   65.8243 H       1  ZINC001064463188    0.1000
     30 H30        -7.5992   -0.8425   64.5650 H       1  ZINC001064463188    0.0600
     31 H31       -11.3082    1.3267   65.8948 H       1  ZINC001064463188    0.1500
     32 H32       -13.0619    1.4220   64.1432 H       1  ZINC001064463188    0.1800
     33 H33       -10.9057    1.9941   60.6569 H       1  ZINC001064463188    0.0800
     34 H34        -9.3568    1.5715   59.8944 H       1  ZINC001064463188    0.0600
     35 H35       -12.0403    0.3505   59.1239 H       1  ZINC001064463188    0.0800
     36 H36       -11.2915    1.7190   58.2804 H       1  ZINC001064463188    0.0800
     37 H37        -8.6323    0.0342   56.6219 H       1  ZINC001064463188    0.0800
     38 H38        -9.0442    1.5494   57.4844 H       1  ZINC001064463188    0.0900
     39 H39        -7.0329   -0.2594   58.2733 H       1  ZINC001064463188    0.0800
     40 H40        -7.8022    0.9493   59.3453 H       1  ZINC001064463188    0.0800
     41 H41        -8.1377    0.1120   61.2252 H       1  ZINC001064463188    0.0700
     42 H42        -8.8602   -1.4788   61.5766 H       1  ZINC001064463188    0.0900
     43 H43       -12.0343   -2.8262   57.2654 H       1  ZINC001064463188    0.1200
     44 H44       -13.0934   -1.0033   60.5834 H       1  ZINC001064463188    0.0800
     45 H45       -14.0100   -2.4874   60.9376 H       1  ZINC001064463188    0.0800
     46 H46       -12.2306   -2.5258   60.9088 H       1  ZINC001064463188    0.0700
     47 H47       -14.8531   -1.6436   57.8128 H       1  ZINC001064463188    0.1400
     48 H48       -15.3227   -3.8388   56.6311 H       1  ZINC001064463188    0.1000
     49 H49       -13.9847   -4.6503   57.6071 H       1  ZINC001064463188    0.1000
     50 H50       -15.2059   -4.0799   59.7558 H       1  ZINC001064463188    0.0900
     51 H51       -16.5440   -3.2685   58.7799 H       1  ZINC001064463188    0.1000
@<TRIPOS>BOND
     1     1     2    1
     2     1    28    1
     3     1    29    1
     4     1    30    1
     5     2     3    1
     6     3    27   ar
     7     3     4   ar
     8     4     5   ar
     9     4    31    1
    10     5     6   ar
    11     5    32    1
    12     6     7   ar
    13     7     8    1
    14     7    27   ar
    15     8    17    1
    16     8     9    1
    17     9    10    1
    18     9    33    1
    19     9    34    1
    20    10    11    1
    21    10    35    1
    22    10    36    1
    23    11    12    1
    24    11    18    1
    25    11    13    1
    26    13    14    1
    27    13    37    1
    28    13    38    1
    29    14    15    1
    30    14    39    1
    31    14    40    1
    32    15    16    1
    33    15    17    1
    34    15    18    1
    35    17    41    1
    36    17    42    1
    37    18    19   am
    38    19    20    2
    39    19    21    1
    40    21    22    2
    41    21    43    1
    42    22    23    1
    43    22    24    1
    44    23    44    1
    45    23    45    1
    46    23    46    1
    47    24    26    1
    48    24    25    1
    49    24    47    1
    50    25    26    1
    51    25    48    1
    52    25    49    1
    53    26    50    1
    54    26    51    1
@<TRIPOS>SUBSTRUCTURE
     1 ZINC001064463188        1 TEMP              0 ****  ****    0 ROOT


##########                                Name:    ZINC001179023006
##########                DOCK_Rotatable_Bonds:                   3
##########                         Heavy_Atoms:                  25
##########                    Molecular_Weight:             340.465
##########                DOCK_Rotatable_Bonds:                   3
##########                       Formal_Charge:          -0.0100005
##########                     HBond_Acceptors:                   4
##########                        HBond_Donors:                   1
##########                         Heavy_Atoms:                  25
##########                          Grid_Score:          -26.310537
##########                     Grid_vdw_energy:          -26.025101
##########                      Grid_es_energy:           -0.285436
##########           Internal_energy_repulsive:           27.582165

@<TRIPOS>MOLECULE
ZINC001179023006
 53 56 1 0 0
SMALL
USER_CHARGES


@<TRIPOS>ATOM
      1 C1         -8.9223    1.5277   60.0868 C.3     1  ZINC001179023006   -0.1500
      2 C2         -8.6173    0.2464   59.3084 C.3     1  ZINC001179023006   -0.1100
      3 C3         -9.8210   -0.6950   59.3841 C.3     1  ZINC001179023006   -0.1100
      4 C4        -10.9654   -0.2534   58.5087 C.2     1  ZINC001179023006    0.5400
      5 O5        -11.9808    0.1799   59.0107 O.2     1  ZINC001179023006   -0.5400
      6 N6        -10.8604   -0.3398   57.1677 N.am    1  ZINC001179023006   -0.5900
      7 C7         -9.6349   -0.8567   56.5439 C.3     1  ZINC001179023006    0.1000
      8 C8         -9.1334    0.1552   55.5162 C.3     1  ZINC001179023006   -0.1200
      9 C9        -10.2571    0.4608   54.5151 C.3     1  ZINC001179023006   -0.0500
     10 C10       -11.4325    1.0915   55.2763 C.3     1  ZINC001179023006   -0.1100
     11 C11       -11.9669    0.0865   56.3004 C.3     1  ZINC001179023006    0.0900
     12 C12        -9.7463    1.4535   53.4828 C.3     1  ZINC001179023006   -0.0800
     13 C13        -8.5242    0.9436   52.7824 C.ar    1  ZINC001179023006   -0.0700
     14 C14        -7.2948    1.5199   53.0857 C.ar    1  ZINC001179023006   -0.1100
     15 C15        -6.1419    1.0305   52.5039 C.ar    1  ZINC001179023006   -0.1100
     16 C16        -6.2041   -0.0297   51.6193 C.ar    1  ZINC001179023006   -0.1200
     17 C17        -7.4297   -0.5916   51.3086 C.ar    1  ZINC001179023006   -0.1000
     18 C18        -8.5787   -0.0865   51.8909 C.ar    1  ZINC001179023006   -0.1100
     19 C19        -9.9194   -0.6761   51.5343 C.3     1  ZINC001179023006    0.1400
     20 N20       -10.5493   -1.2978   52.6780 N.am    1  ZINC001179023006   -0.7000
     21 C21       -10.7121   -0.8170   53.8837 C.2     1  ZINC001179023006    0.5200
     22 O22       -11.3467   -1.5380   54.6241 O.2     1  ZINC001179023006   -0.5500
     23 C23       -10.2432   -1.0409   60.8219 C.3     1  ZINC001179023006   -0.1200
     24 C24       -10.4814   -2.4770   60.3209 C.3     1  ZINC001179023006   -0.1400
     25 C25        -9.4540   -2.1789   59.2161 C.3     1  ZINC001179023006   -0.1300
     26 H26        -8.0801    2.2142   60.0009 H       1  ZINC001179023006    0.0600
     27 H27        -9.8169    1.9972   59.6776 H       1  ZINC001179023006    0.0500
     28 H28        -9.0873    1.2847   61.1365 H       1  ZINC001179023006    0.0600
     29 H29        -7.7453   -0.2432   59.7419 H       1  ZINC001179023006    0.0700
     30 H30        -8.4146    0.4938   58.2664 H       1  ZINC001179023006    0.0700
     31 H31        -8.8721   -1.0081   57.3076 H       1  ZINC001179023006    0.0900
     32 H32        -9.8491   -1.8026   56.0464 H       1  ZINC001179023006    0.0800
     33 H33        -8.2754   -0.2576   54.9856 H       1  ZINC001179023006    0.0800
     34 H34        -8.8396    1.0732   56.0251 H       1  ZINC001179023006    0.0800
     35 H35       -12.2242    1.3509   54.5735 H       1  ZINC001179023006    0.0800
     36 H36       -11.0936    1.9905   55.7911 H       1  ZINC001179023006    0.0800
     37 H37       -12.3791   -0.7792   55.7820 H       1  ZINC001179023006    0.1200
     38 H38       -12.7433    0.5573   56.9035 H       1  ZINC001179023006    0.0800
     39 H39       -10.5289    1.6346   52.7460 H       1  ZINC001179023006    0.0800
     40 H40        -9.5048    2.3923   53.9812 H       1  ZINC001179023006    0.0900
     41 H41        -7.2421    2.3490   53.7758 H       1  ZINC001179023006    0.1200
     42 H42        -5.1881    1.4781   52.7408 H       1  ZINC001179023006    0.1200
     43 H43        -5.3004   -0.4177   51.1730 H       1  ZINC001179023006    0.1300
     44 H44        -7.4891   -1.4183   50.6163 H       1  ZINC001179023006    0.1300
     45 H45        -9.7829   -1.4241   50.7532 H       1  ZINC001179023006    0.0900
     46 H46       -10.5674    0.1154   51.1578 H       1  ZINC001179023006    0.0800
     47 H47       -10.8975   -2.1912   52.5316 H       1  ZINC001179023006    0.4000
     48 H48        -9.4328   -0.9599   61.5463 H       1  ZINC001179023006    0.0900
     49 H49       -11.1525   -0.5333   61.1439 H       1  ZINC001179023006    0.0800
     50 H50       -11.4905   -2.6450   59.9449 H       1  ZINC001179023006    0.0800
     51 H51       -10.1576   -3.2459   61.0224 H       1  ZINC001179023006    0.0700
     52 H52        -9.7271   -2.5889   58.2438 H       1  ZINC001179023006    0.0700
     53 H53        -8.4274   -2.4098   59.5007 H       1  ZINC001179023006    0.0900
@<TRIPOS>BOND
     1     1     2    1
     2     1    26    1
     3     1    27    1
     4     1    28    1
     5     2     3    1
     6     2    29    1
     7     2    30    1
     8     3    25    1
     9     3     4    1
    10     3    23    1
    11     4     5    2
    12     4     6   am
    13     6    11    1
    14     6     7    1
    15     7     8    1
    16     7    31    1
    17     7    32    1
    18     8     9    1
    19     8    33    1
    20     8    34    1
    21     9    21    1
    22     9    10    1
    23     9    12    1
    24    10    11    1
    25    10    35    1
    26    10    36    1
    27    11    37    1
    28    11    38    1
    29    12    13    1
    30    12    39    1
    31    12    40    1
    32    13    18   ar
    33    13    14   ar
    34    14    15   ar
    35    14    41    1
    36    15    16   ar
    37    15    42    1
    38    16    17   ar
    39    16    43    1
    40    17    18   ar
    41    17    44    1
    42    18    19    1
    43    19    20    1
    44    19    45    1
    45    19    46    1
    46    20    21   am
    47    20    47    1
    48    21    22    2
    49    23    24    1
    50    23    48    1
    51    23    49    1
    52    24    25    1
    53    24    50    1
    54    24    51    1
    55    25    52    1
    56    25    53    1
@<TRIPOS>SUBSTRUCTURE
     1 ZINC001179023006        1 TEMP              0 ****  ****    0 ROOT


##########                                Name:    ZINC001018118384
##########                DOCK_Rotatable_Bonds:                   5
##########                         Heavy_Atoms:                  25
##########                    Molecular_Weight:             347.374
##########                DOCK_Rotatable_Bonds:                   5
##########                       Formal_Charge:           0.0299997
##########                     HBond_Acceptors:                   9
##########                        HBond_Donors:                   2
##########                         Heavy_Atoms:                  25
##########                          Grid_Score:          -26.281479
##########                     Grid_vdw_energy:          -25.174391
##########                      Grid_es_energy:           -1.107088
##########           Internal_energy_repulsive:           97.474770

@<TRIPOS>MOLECULE
ZINC001018118384
 46 48 1 0 0
SMALL
USER_CHARGES


@<TRIPOS>ATOM
      1 C1         -5.7798    3.0912   56.2948 C.3     1  ZINC001018118384   -0.0700
      2 C2         -6.7023    2.5656   57.3643 C.2     1  ZINC001018118384    0.2200
      3 N3         -7.1365    1.3417   57.4534 N.2     1  ZINC001018118384   -0.4600
      4 C4         -7.9431    1.2400   58.5406 C.2     1  ZINC001018118384   -0.0700
      5 C5         -8.6378    0.0245   58.9990 C.2     1  ZINC001018118384    0.6100
      6 O6         -8.0191   -0.8477   59.5785 O.2     1  ZINC001018118384   -0.5400
      7 N7         -9.9590   -0.1212   58.7761 N.am    1  ZINC001018118384   -0.5900
      8 C8        -10.7187    0.9209   58.0721 C.3     1  ZINC001018118384    0.0700
      9 C9        -11.4612    0.2798   56.8955 C.3     1  ZINC001018118384    0.1300
     10 H10       -12.1040    1.0225   56.4228 H       1  ZINC001018118384    0.1100
     11 N11       -10.4905   -0.2196   55.9184 N.am    1  ZINC001018118384   -0.7000
     12 C12        -9.9056    0.6326   55.0535 C.2     1  ZINC001018118384    0.6000
     13 O13       -10.1844    1.8147   55.0830 O.2     1  ZINC001018118384   -0.4900
     14 C14        -8.9223    0.1276   54.0663 C.2     1  ZINC001018118384    0.0300
     15 C15        -8.8571   -1.1382   53.5646 C.2     1  ZINC001018118384   -0.2300
     16 C16        -7.7517   -1.0974   52.6689 C.2     1  ZINC001018118384    0.4800
     17 O17        -7.3205   -2.0136   51.9888 O.2     1  ZINC001018118384   -0.5200
     18 N18        -7.2807    0.1645   52.7277 N.am    1  ZINC001018118384   -0.4500
     19 C19        -6.1361    0.6612   51.9599 C.3     1  ZINC001018118384    0.1100
     20 O20        -7.9340    0.8327   53.4952 O.3     1  ZINC001018118384    0.0000
     21 C21       -12.3149   -0.8823   57.4083 C.3     1  ZINC001018118384   -0.1300
     22 C22       -11.4100   -1.9408   58.0430 C.3     1  ZINC001018118384   -0.1300
     23 C23       -10.6657   -1.3277   59.2272 C.3     1  ZINC001018118384    0.1400
     24 H24       -11.3785   -1.0568   60.0062 H       1  ZINC001018118384    0.0700
     25 C25        -9.6608   -2.3398   59.7811 C.3     1  ZINC001018118384   -0.1400
     26 C26        -7.9928    2.4686   59.1317 C.2     1  ZINC001018118384    0.0400
     27 N27        -7.2100    3.2912   58.3945 N.pl3   1  ZINC001018118384   -0.5600
     28 H28        -4.7451    2.9670   56.6142 H       1  ZINC001018118384    0.0900
     29 H29        -5.9434    2.5381   55.3699 H       1  ZINC001018118384    0.1000
     30 H30        -5.9837    4.1487   56.1268 H       1  ZINC001018118384    0.0800
     31 H31       -11.4377    1.3734   58.7550 H       1  ZINC001018118384    0.0800
     32 H32       -10.0346    1.6838   57.7005 H       1  ZINC001018118384    0.1500
     33 H33       -10.2688   -1.1636   55.8940 H       1  ZINC001018118384    0.4100
     34 H34        -9.4962   -1.9780   53.7942 H       1  ZINC001018118384    0.1900
     35 H35        -6.4829    1.0554   51.0047 H       1  ZINC001018118384    0.0800
     36 H36        -5.6385    1.4527   52.5205 H       1  ZINC001018118384    0.0900
     37 H37        -5.4354   -0.1548   51.7835 H       1  ZINC001018118384    0.1100
     38 H38       -13.0202   -0.5137   58.1530 H       1  ZINC001018118384    0.0900
     39 H39       -12.8633   -1.3246   56.5766 H       1  ZINC001018118384    0.0800
     40 H40       -12.0163   -2.7788   58.3870 H       1  ZINC001018118384    0.0800
     41 H41       -10.6883   -2.2921   57.3055 H       1  ZINC001018118384    0.0600
     42 H42        -8.9581   -2.6205   58.9965 H       1  ZINC001018118384    0.0700
     43 H43        -9.1167   -1.8932   60.6134 H       1  ZINC001018118384    0.0800
     44 H44       -10.1916   -3.2264   60.1278 H       1  ZINC001018118384    0.0400
     45 H45        -8.5467    2.7332   60.0203 H       1  ZINC001018118384    0.1900
     46 H46        -7.0466    4.2316   58.5670 H       1  ZINC001018118384    0.4300
@<TRIPOS>BOND
     1     1     2    1
     2     1    28    1
     3     1    29    1
     4     1    30    1
     5     2    27    1
     6     2     3    2
     7     3     4    1
     8     4     5    1
     9     4    26    2
    10     5     6    2
    11     5     7   am
    12     7    23    1
    13     7     8    1
    14     8     9    1
    15     8    31    1
    16     8    32    1
    17     9    10    1
    18     9    11    1
    19     9    21    1
    20    11    12   am
    21    11    33    1
    22    12    13    2
    23    12    14    1
    24    14    20    1
    25    14    15    2
    26    15    16    1
    27    15    34    1
    28    16    17    2
    29    16    18   am
    30    18    19    1
    31    18    20    1
    32    19    35    1
    33    19    36    1
    34    19    37    1
    35    21    22    1
    36    21    38    1
    37    21    39    1
    38    22    23    1
    39    22    40    1
    40    22    41    1
    41    23    24    1
    42    23    25    1
    43    25    42    1
    44    25    43    1
    45    25    44    1
    46    26    27    1
    47    26    45    1
    48    27    46    1
@<TRIPOS>SUBSTRUCTURE
     1 ZINC001018118384        1 TEMP              0 ****  ****    0 ROOT


##########                                Name:    ZINC000797321835
##########                DOCK_Rotatable_Bonds:                   4
##########                         Heavy_Atoms:                  22
##########                    Molecular_Weight:             381.253
##########                DOCK_Rotatable_Bonds:                   4
##########                       Formal_Charge:           0.0200001
##########                     HBond_Acceptors:                   7
##########                        HBond_Donors:                   1
##########                         Heavy_Atoms:                  22
##########                          Grid_Score:          -26.257629
##########                     Grid_vdw_energy:          -25.747629
##########                      Grid_es_energy:           -0.510000
##########           Internal_energy_repulsive:            7.360940

@<TRIPOS>MOLECULE
ZINC000797321835
 35 37 1 0 0
SMALL
USER_CHARGES


@<TRIPOS>ATOM
      1 C1        -12.3502   -2.1177   59.7886 C.3     1  ZINC000797321835    0.1000
      2 N2        -13.4866   -2.5313   58.9616 N.am    1  ZINC000797321835   -0.6000
      3 C3        -14.7720   -2.4596   59.3484 C.2     1  ZINC000797321835    0.5200
      4 O4        -15.1514   -2.0524   60.4260 O.2     1  ZINC000797321835   -0.5200
      5 C5        -15.6764   -2.9600   58.2439 C.3     1  ZINC000797321835   -0.1500
      6 C6        -14.7777   -2.9529   56.9855 C.3     1  ZINC000797321835   -0.1200
      7 C7        -13.3683   -3.0715   57.6022 C.3     1  ZINC000797321835    0.1200
      8 H8        -13.0613   -4.1164   57.6435 H       1  ZINC000797321835    0.1100
      9 C9        -12.3780   -2.2691   56.7980 C.2     1  ZINC000797321835    0.4900
     10 O10       -12.7678   -1.3916   56.0571 O.2     1  ZINC000797321835   -0.4400
     11 N11       -11.0592   -2.5269   56.9021 N.am    1  ZINC000797321835   -0.6500
     12 C12       -10.1427   -1.7843   56.1579 C.ar    1  ZINC000797321835    0.3000
     13 C13        -9.3881   -0.7861   56.7752 C.ar    1  ZINC000797321835   -0.1400
     14 C14        -8.4911   -0.0752   55.9988 C.ar    1  ZINC000797321835   -0.0800
     15 C15        -8.3963   -0.4022   54.6397 C.ar    1  ZINC000797321835    0.1100
     16 C16        -7.4539    0.3257   53.7662 C.2     1  ZINC000797321835   -0.1400
     17 C17        -7.0968    1.6179   53.9120 C.2     1  ZINC000797321835   -0.0900
     18 C18        -6.1997    2.0779   52.9712 C.2     1  ZINC000797321835   -0.0900
     19 C19        -5.8218    1.1744   52.0599 C.2     1  ZINC000797321835   -0.2000
     20 Br20       -4.6081    1.4972   50.6461 Br      1  ZINC000797321835    0.0200
     21 S21        -6.6181   -0.3607   52.3792 S.3     1  ZINC000797321835    0.1900
     22 N22        -9.1572   -1.3700   54.1401 N.ar    1  ZINC000797321835   -0.1900
     23 N23        -9.9845   -2.0301   54.8662 N.ar    1  ZINC000797321835   -0.2200
     24 H24       -12.1354   -1.0641   59.6100 H       1  ZINC000797321835    0.0700
     25 H25       -12.5936   -2.2656   60.8407 H       1  ZINC000797321835    0.0800
     26 H26       -11.4762   -2.7156   59.5303 H       1  ZINC000797321835    0.0700
     27 H27       -16.0204   -3.9712   58.4612 H       1  ZINC000797321835    0.1100
     28 H28       -16.5242   -2.2879   58.1110 H       1  ZINC000797321835    0.1100
     29 H29       -14.9986   -3.8058   56.3436 H       1  ZINC000797321835    0.1100
     30 H30       -14.8818   -2.0167   56.4371 H       1  ZINC000797321835    0.0900
     31 H31       -10.7475   -3.2286   57.4947 H       1  ZINC000797321835    0.4200
     32 H32        -9.5013   -0.5746   57.8283 H       1  ZINC000797321835    0.1600
     33 H33        -7.8828    0.7079   56.4269 H       1  ZINC000797321835    0.1500
     34 H34        -7.4832    2.2433   54.7032 H       1  ZINC000797321835    0.1600
     35 H35        -5.8299    3.0925   52.9699 H       1  ZINC000797321835    0.1600
@<TRIPOS>BOND
     1     1     2    1
     2     1    24    1
     3     1    25    1
     4     1    26    1
     5     2     7    1
     6     2     3   am
     7     3     4    2
     8     3     5    1
     9     5     6    1
    10     5    27    1
    11     5    28    1
    12     6     7    1
    13     6    29    1
    14     6    30    1
    15     7     8    1
    16     7     9    1
    17     9    10    2
    18     9    11   am
    19    11    12    1
    20    11    31    1
    21    12    23   ar
    22    12    13   ar
    23    13    14   ar
    24    13    32    1
    25    14    15   ar
    26    14    33    1
    27    15    16    1
    28    15    22   ar
    29    16    21    1
    30    16    17    2
    31    17    18    1
    32    17    34    1
    33    18    19    2
    34    18    35    1
    35    19    20    1
    36    19    21    1
    37    22    23   ar
@<TRIPOS>SUBSTRUCTURE
     1 ZINC000797321835        1 TEMP              0 ****  ****    0 ROOT


##########                                Name:    ZINC000279974681
##########                DOCK_Rotatable_Bonds:                   4
##########                         Heavy_Atoms:                  23
##########                    Molecular_Weight:              338.79
##########                DOCK_Rotatable_Bonds:                   4
##########                       Formal_Charge:           0.0100008
##########                     HBond_Acceptors:                   7
##########                        HBond_Donors:                   1
##########                         Heavy_Atoms:                  23
##########                          Grid_Score:          -26.254112
##########                     Grid_vdw_energy:          -25.230207
##########                      Grid_es_energy:           -1.023905
##########           Internal_energy_repulsive:            7.147909

@<TRIPOS>MOLECULE
ZINC000279974681
 42 45 1 0 0
SMALL
USER_CHARGES


@<TRIPOS>ATOM
      1 C1         -7.8474   -0.9896   51.3452 C.3     1  ZINC000279974681   -0.1400
      2 C2         -8.7679   -0.2267   52.3000 C.3     1  ZINC000279974681    0.0700
      3 H3         -8.1832    0.4955   52.8698 H       1  ZINC000279974681    0.0600
      4 C4         -9.4400   -1.2138   53.2612 C.3     1  ZINC000279974681    0.1000
      5 N5        -10.4548   -0.4858   54.0393 N.am    1  ZINC000279974681   -0.6300
      6 C6        -10.4923   -0.5728   55.3838 C.2     1  ZINC000279974681    0.7100
      7 O7        -11.3388    0.0364   56.0090 O.2     1  ZINC000279974681   -0.5600
      8 N8         -9.5917   -1.3351   56.0351 N.am    1  ZINC000279974681   -0.6700
      9 C9         -9.6309   -1.4256   57.4337 C.ar    1  ZINC000279974681    0.2000
     10 C10        -8.7929   -0.6322   58.2042 C.ar    1  ZINC000279974681   -0.1200
     11 C11        -8.8322   -0.7215   59.5858 C.ar    1  ZINC000279974681    0.0700
     12 C12        -9.7134   -1.6081   60.1996 C.ar    1  ZINC000279974681    0.0200
     13 C13       -10.5484   -2.3994   59.4273 C.ar    1  ZINC000279974681   -0.0700
     14 C14       -10.5128   -2.3055   58.0484 C.ar    1  ZINC000279974681   -0.0700
     15 Cl15      -11.5604   -3.2986   57.0841 Cl      1  ZINC000279974681   -0.0500
     16 O16        -9.5603   -1.5078   61.5534 O.3     1  ZINC000279974681   -0.3000
     17 C17        -8.2940   -0.8513   61.7494 C.3     1  ZINC000279974681    0.2100
     18 O18        -8.1274   -0.0659   60.5542 O.3     1  ZINC000279974681   -0.3000
     19 C19       -11.4271    0.3405   53.3063 C.3     1  ZINC000279974681    0.0800
     20 C20       -10.6581    1.2518   52.3429 C.3     1  ZINC000279974681    0.1100
     21 H21       -10.0811    1.9800   52.9131 H       1  ZINC000279974681    0.0700
     22 C22       -11.6467    1.9829   51.4324 C.3     1  ZINC000279974681   -0.1600
     23 C23       -11.8439    3.4825   51.6636 C.3     1  ZINC000279974681   -0.1700
     24 C24       -11.0747    2.9925   50.4351 C.3     1  ZINC000279974681   -0.1600
     25 O25        -9.7727    0.4586   51.5488 O.3     1  ZINC000279974681   -0.3600
     26 H26        -7.3712   -0.2874   50.6609 H       1  ZINC000279974681    0.0700
     27 H27        -7.0826   -1.5134   51.9187 H       1  ZINC000279974681    0.0800
     28 H28        -8.4327   -1.7117   50.7757 H       1  ZINC000279974681    0.0700
     29 H29        -9.9166   -2.0126   52.6930 H       1  ZINC000279974681    0.0800
     30 H30        -8.6941   -1.6360   53.9346 H       1  ZINC000279974681    0.1100
     31 H31        -8.9166   -1.8211   55.5363 H       1  ZINC000279974681    0.4100
     32 H32        -8.1098    0.0547   57.7265 H       1  ZINC000279974681    0.1800
     33 H33       -11.2315   -3.0872   59.9034 H       1  ZINC000279974681    0.1500
     34 H34        -8.3282   -0.2081   62.6287 H       1  ZINC000279974681    0.1400
     35 H35        -7.4925   -1.5844   61.8407 H       1  ZINC000279974681    0.0900
     36 H36       -12.1037   -0.3019   52.7427 H       1  ZINC000279974681    0.0900
     37 H37       -11.9971    0.9474   54.0097 H       1  ZINC000279974681    0.0900
     38 H38       -12.5150    1.4031   51.1195 H       1  ZINC000279974681    0.1100
     39 H39       -12.8422    3.8895   51.5029 H       1  ZINC000279974681    0.1000
     40 H40       -11.2694    3.9482   52.4643 H       1  ZINC000279974681    0.1000
     41 H41        -9.9941    3.1357   50.4276 H       1  ZINC000279974681    0.1000
     42 H42       -11.5669    3.0770   49.4663 H       1  ZINC000279974681    0.1000
@<TRIPOS>BOND
     1     1     2    1
     2     1    26    1
     3     1    27    1
     4     1    28    1
     5     2     3    1
     6     2    25    1
     7     2     4    1
     8     4     5    1
     9     4    29    1
    10     4    30    1
    11     5     6   am
    12     5    19    1
    13     6     7    2
    14     6     8   am
    15     8     9    1
    16     8    31    1
    17     9    14   ar
    18     9    10   ar
    19    10    11   ar
    20    10    32    1
    21    11    18    1
    22    11    12   ar
    23    12    13   ar
    24    12    16    1
    25    13    14   ar
    26    13    33    1
    27    14    15    1
    28    16    17    1
    29    17    18    1
    30    17    34    1
    31    17    35    1
    32    19    20    1
    33    19    36    1
    34    19    37    1
    35    20    21    1
    36    20    22    1
    37    20    25    1
    38    22    24    1
    39    22    23    1
    40    22    38    1
    41    23    24    1
    42    23    39    1
    43    23    40    1
    44    24    41    1
    45    24    42    1
@<TRIPOS>SUBSTRUCTURE
     1 ZINC000279974681        1 TEMP              0 ****  ****    0 ROOT


##########                                Name:    ZINC001010141213
##########                DOCK_Rotatable_Bonds:                   4
##########                         Heavy_Atoms:                  24
##########                    Molecular_Weight:             330.346
##########                DOCK_Rotatable_Bonds:                   4
##########                       Formal_Charge:          -0.0100003
##########                     HBond_Acceptors:                   9
##########                        HBond_Donors:                   1
##########                         Heavy_Atoms:                  24
##########                          Grid_Score:          -26.247534
##########                     Grid_vdw_energy:          -24.996408
##########                      Grid_es_energy:           -1.251125
##########           Internal_energy_repulsive:           15.519484

@<TRIPOS>MOLECULE
ZINC001010141213
 42 44 1 0 0
SMALL
USER_CHARGES


@<TRIPOS>ATOM
      1 C1        -12.7428    0.4662   53.5381 C.3     1  ZINC001010141213   -0.0800
      2 C2        -11.4558   -0.0097   52.9150 C.2     1  ZINC001010141213   -0.1500
      3 C3        -10.1785    0.1066   53.4350 C.2     1  ZINC001010141213   -0.0400
      4 C4         -9.7991    0.7242   54.7158 C.2     1  ZINC001010141213    0.6000
      5 O5         -9.2197    1.7934   54.7274 O.2     1  ZINC001010141213   -0.5100
      6 N6        -10.0939    0.1048   55.8760 N.am    1  ZINC001010141213   -0.6100
      7 C7        -10.7883   -1.1904   55.8770 C.3     1  ZINC001010141213    0.0900
      8 C8         -9.9469   -2.1969   56.6715 C.3     1  ZINC001010141213    0.0700
      9 N9         -9.5792   -1.5894   57.9583 N.am    1  ZINC001010141213   -0.6000
     10 C10        -9.8731   -2.2092   59.1183 C.2     1  ZINC001010141213    0.5900
     11 O11       -10.4473   -3.2805   59.1065 O.2     1  ZINC001010141213   -0.5200
     12 C12        -9.4970   -1.5860   60.4056 C.2     1  ZINC001010141213    0.0300
     13 N13        -8.2528   -1.6466   60.8239 N.2     1  ZINC001010141213   -0.1800
     14 N14        -7.8763   -1.1217   61.9334 N.am    1  ZINC001010141213   -0.4400
     15 C15        -8.7375   -0.4740   62.7400 C.2     1  ZINC001010141213    0.4800
     16 O16        -8.3486    0.0143   63.7879 O.2     1  ZINC001010141213   -0.5100
     17 C17       -10.0949   -0.3634   62.3645 C.2     1  ZINC001010141213   -0.1800
     18 C18       -10.4776   -0.9210   61.1808 C.2     1  ZINC001010141213   -0.0400
     19 C19        -8.8848   -0.2941   57.9572 C.3     1  ZINC001010141213    0.1000
     20 C20        -9.7212    0.7097   57.1625 C.3     1  ZINC001010141213    0.1000
     21 N21        -9.3405   -0.4666   52.5212 N.pl3   1  ZINC001010141213   -0.2700
     22 C22        -7.8857   -0.5703   52.6583 C.3     1  ZINC001010141213    0.0900
     23 N23       -10.0229   -0.9014   51.5236 N.2     1  ZINC001010141213   -0.2800
     24 C24       -11.2992   -0.6675   51.6928 C.2     1  ZINC001010141213    0.0100
     25 H25       -13.1588   -0.3249   54.1620 H       1  ZINC001010141213    0.0700
     26 H26       -12.5463    1.3463   54.1505 H       1  ZINC001010141213    0.0600
     27 H27       -13.4541    0.7216   52.7527 H       1  ZINC001010141213    0.0700
     28 H28       -11.7663   -1.0808   56.3455 H       1  ZINC001010141213    0.0800
     29 H29       -10.9080   -1.5421   54.8523 H       1  ZINC001010141213    0.1000
     30 H30       -10.5285   -3.1019   56.8472 H       1  ZINC001010141213    0.1400
     31 H31        -9.0445   -2.4421   56.1116 H       1  ZINC001010141213    0.0800
     32 H32        -6.9458   -1.1941   62.1978 H       1  ZINC001010141213    0.4500
     33 H33       -10.8064    0.1510   62.9934 H       1  ZINC001010141213    0.1700
     34 H34       -11.5031   -0.8642   60.8472 H       1  ZINC001010141213    0.1700
     35 H35        -8.7650    0.0575   58.9819 H       1  ZINC001010141213    0.1100
     36 H36        -7.9067   -0.4038   57.4887 H       1  ZINC001010141213    0.0800
     37 H37        -9.1384    1.6141   56.9876 H       1  ZINC001010141213    0.1100
     38 H38       -10.6246    0.9558   57.7203 H       1  ZINC001010141213    0.0800
     39 H39        -7.6288   -1.5411   53.0821 H       1  ZINC001010141213    0.0900
     40 H40        -7.4201   -0.4672   51.6780 H       1  ZINC001010141213    0.1000
     41 H41        -7.5255    0.2203   53.3165 H       1  ZINC001010141213    0.0900
     42 H42       -12.0903   -0.9301   51.0062 H       1  ZINC001010141213    0.1900
@<TRIPOS>BOND
     1     1     2    1
     2     1    25    1
     3     1    26    1
     4     1    27    1
     5     2    24    1
     6     2     3    2
     7     3     4    1
     8     3    21    1
     9     4     5    2
    10     4     6   am
    11     6    20    1
    12     6     7    1
    13     7     8    1
    14     7    28    1
    15     7    29    1
    16     8     9    1
    17     8    30    1
    18     8    31    1
    19     9    10   am
    20     9    19    1
    21    10    11    2
    22    10    12    1
    23    12    18    1
    24    12    13    2
    25    13    14    1
    26    14    15   am
    27    14    32    1
    28    15    16    2
    29    15    17    1
    30    17    18    2
    31    17    33    1
    32    18    34    1
    33    19    20    1
    34    19    35    1
    35    19    36    1
    36    20    37    1
    37    20    38    1
    38    21    22    1
    39    21    23    1
    40    22    39    1
    41    22    40    1
    42    22    41    1
    43    23    24    2
    44    24    42    1
@<TRIPOS>SUBSTRUCTURE
     1 ZINC001010141213        1 TEMP              0 ****  ****    0 ROOT


##########                                Name:    ZINC000534799364
##########                DOCK_Rotatable_Bonds:                   4
##########                         Heavy_Atoms:                  29
##########                    Molecular_Weight:             391.491
##########                DOCK_Rotatable_Bonds:                   4
##########                       Formal_Charge:           0.0199998
##########                     HBond_Acceptors:                   6
##########                        HBond_Donors:                   0
##########                         Heavy_Atoms:                  29
##########                          Grid_Score:          -26.216845
##########                     Grid_vdw_energy:          -27.056231
##########                      Grid_es_energy:            0.839386
##########           Internal_energy_repulsive:           14.177238

@<TRIPOS>MOLECULE
ZINC000534799364
 55 59 1 0 0
SMALL
USER_CHARGES


@<TRIPOS>ATOM
      1 C1         -9.3902   -0.9087   51.4946 C.3     1  ZINC000534799364   -0.1100
      2 C2         -8.4477   -0.0742   52.3231 C.ar    1  ZINC000534799364   -0.0200
      3 C3         -7.3682    0.5676   51.7393 C.ar    1  ZINC000534799364   -0.1700
      4 C4         -6.5241    1.3250   52.5305 C.ar    1  ZINC000534799364    0.1000
      5 N5         -6.7343    1.4423   53.8268 N.ar    1  ZINC000534799364   -0.4800
      6 C6         -7.7493    0.8485   54.4225 C.ar    1  ZINC000534799364    0.0800
      7 C7         -8.6442    0.0754   53.6942 C.ar    1  ZINC000534799364    0.0300
      8 N8         -9.7189   -0.5520   54.3289 N.3     1  ZINC000534799364   -0.5000
      9 C9        -10.1449    0.2045   55.5146 C.3     1  ZINC000534799364    0.0600
     10 C10       -11.3709   -0.4706   56.1340 C.3     1  ZINC000534799364    0.0600
     11 N11       -11.0363   -1.8567   56.4895 N.3     1  ZINC000534799364   -0.5300
     12 C12       -12.1665   -2.5165   57.1569 C.3     1  ZINC000534799364    0.1400
     13 C13       -12.2397   -2.0588   58.5909 C.2     1  ZINC000534799364    0.1100
     14 N14       -11.2654   -1.5130   59.2716 N.2     1  ZINC000534799364   -0.2800
     15 N15       -11.7351   -1.2325   60.5603 N.pl3   1  ZINC000534799364   -0.3100
     16 C16       -10.9974   -0.6437   61.5976 C.ar    1  ZINC000534799364    0.1500
     17 C17       -11.4677    0.5047   62.2200 C.ar    1  ZINC000534799364   -0.1000
     18 C18       -10.7399    1.0830   63.2413 C.ar    1  ZINC000534799364   -0.1300
     19 C19        -9.5416    0.5181   63.6447 C.ar    1  ZINC000534799364    0.1000
     20 F20        -8.8311    1.0850   64.6441 F       1  ZINC000534799364   -0.1300
     21 C21        -9.0708   -0.6275   63.0250 C.ar    1  ZINC000534799364   -0.1300
     22 C22        -9.7987   -1.2119   62.0072 C.ar    1  ZINC000534799364   -0.0800
     23 C23       -13.0283   -1.6305   60.6280 C.2     1  ZINC000534799364    0.0500
     24 C24       -13.3658   -2.1393   59.4222 C.2     1  ZINC000534799364   -0.2200
     25 C25       -14.8066   -2.6032   59.4344 C.3     1  ZINC000534799364   -0.0400
     26 C26       -15.1804   -2.7084   60.9291 C.3     1  ZINC000534799364   -0.1200
     27 C27       -14.2072   -1.6963   61.5744 C.3     1  ZINC000534799364   -0.0500
     28 C28       -10.6104   -2.6133   55.3038 C.3     1  ZINC000534799364    0.0600
     29 C29        -9.3844   -1.9382   54.6844 C.3     1  ZINC000534799364    0.0600
     30 H30       -10.2465   -0.3031   51.1978 H       1  ZINC000534799364    0.0800
     31 H31        -8.8722   -1.2664   50.6047 H       1  ZINC000534799364    0.0600
     32 H32        -9.7336   -1.7602   52.0820 H       1  ZINC000534799364    0.0800
     33 H33        -7.1875    0.4771   50.6784 H       1  ZINC000534799364    0.1400
     34 H34        -5.6806    1.8272   52.0802 H       1  ZINC000534799364    0.1600
     35 H35        -7.8888    0.9678   55.4868 H       1  ZINC000534799364    0.1500
     36 H36        -9.3344    0.2254   56.2432 H       1  ZINC000534799364    0.0500
     37 H37       -10.3991    1.2237   55.2237 H       1  ZINC000534799364    0.0800
     38 H38       -11.6711    0.0723   57.0302 H       1  ZINC000534799364    0.0900
     39 H39       -12.1901   -0.4671   55.4149 H       1  ZINC000534799364    0.0500
     40 H40       -13.0929   -2.2566   56.6448 H       1  ZINC000534799364    0.1000
     41 H41       -12.0255   -3.5969   57.1271 H       1  ZINC000534799364    0.0500
     42 H42       -12.4020    0.9457   61.9053 H       1  ZINC000534799364    0.1400
     43 H43       -11.1053    1.9766   63.7253 H       1  ZINC000534799364    0.1500
     44 H44        -8.1359   -1.0664   63.3407 H       1  ZINC000534799364    0.1500
     45 H45        -9.4315   -2.1055   61.5245 H       1  ZINC000534799364    0.1400
     46 H46       -15.4437   -1.8731   58.9352 H       1  ZINC000534799364    0.0800
     47 H47       -14.8951   -3.5767   58.9522 H       1  ZINC000534799364    0.0700
     48 H48       -16.2157   -2.4100   61.0935 H       1  ZINC000534799364    0.0800
     49 H49       -15.0028   -3.7161   61.3047 H       1  ZINC000534799364    0.0800
     50 H50       -13.8848   -2.0517   62.5531 H       1  ZINC000534799364    0.0800
     51 H51       -14.6810   -0.7186   61.6628 H       1  ZINC000534799364    0.0900
     52 H52       -10.3561   -3.6325   55.5948 H       1  ZINC000534799364    0.0900
     53 H53       -11.4209   -2.6342   54.5753 H       1  ZINC000534799364    0.0500
     54 H54        -9.0842   -2.4811   53.7882 H       1  ZINC000534799364    0.0800
     55 H55        -8.5653   -1.9416   55.4035 H       1  ZINC000534799364    0.0500
@<TRIPOS>BOND
     1     1     2    1
     2     1    30    1
     3     1    31    1
     4     1    32    1
     5     2     7   ar
     6     2     3   ar
     7     3     4   ar
     8     3    33    1
     9     4     5   ar
    10     4    34    1
    11     5     6   ar
    12     6     7   ar
    13     6    35    1
    14     7     8    1
    15     8    29    1
    16     8     9    1
    17     9    10    1
    18     9    36    1
    19     9    37    1
    20    10    11    1
    21    10    38    1
    22    10    39    1
    23    11    12    1
    24    11    28    1
    25    12    13    1
    26    12    40    1
    27    12    41    1
    28    13    24    1
    29    13    14    2
    30    14    15    1
    31    15    16    1
    32    15    23    1
    33    16    22   ar
    34    16    17   ar
    35    17    18   ar
    36    17    42    1
    37    18    19   ar
    38    18    43    1
    39    19    20    1
    40    19    21   ar
    41    21    22   ar
    42    21    44    1
    43    22    45    1
    44    23    27    1
    45    23    24    2
    46    24    25    1
    47    25    26    1
    48    25    46    1
    49    25    47    1
    50    26    27    1
    51    26    48    1
    52    26    49    1
    53    27    50    1
    54    27    51    1
    55    28    29    1
    56    28    52    1
    57    28    53    1
    58    29    54    1
    59    29    55    1
@<TRIPOS>SUBSTRUCTURE
     1 ZINC000534799364        1 TEMP              0 ****  ****    0 ROOT


##########                                Name:    ZINC001356153960
##########                DOCK_Rotatable_Bonds:                   8
##########                         Heavy_Atoms:                  24
##########                    Molecular_Weight:             334.366
##########                DOCK_Rotatable_Bonds:                   8
##########                       Formal_Charge:           0.0100003
##########                     HBond_Acceptors:                   6
##########                        HBond_Donors:                   1
##########                         Heavy_Atoms:                  24
##########                          Grid_Score:          -26.205534
##########                     Grid_vdw_energy:          -26.571260
##########                      Grid_es_energy:            0.365727
##########           Internal_energy_repulsive:           13.702232

@<TRIPOS>MOLECULE
ZINC001356153960
 44 46 1 0 0
SMALL
USER_CHARGES


@<TRIPOS>ATOM
      1 O1         -6.6631   -0.7273   52.6722 O.2     1  ZINC001356153960   -0.5200
      2 C2         -6.8449    0.4479   52.9137 C.2     1  ZINC001356153960    0.5100
      3 N3         -6.2304    1.3911   52.1724 N.am    1  ZINC001356153960   -0.7000
      4 C4         -5.3478    0.9974   51.0714 C.3     1  ZINC001356153960    0.1300
      5 C5         -4.3594    2.1286   50.7806 C.3     1  ZINC001356153960   -0.0800
      6 H6         -4.8947    3.0513   50.5568 H       1  ZINC001356153960    0.0900
      7 C7         -3.4302    2.3305   51.9549 C.2     1  ZINC001356153960   -0.1700
      8 C8         -2.1941    2.4664   51.5582 C.2     1  ZINC001356153960   -0.1600
      9 C9         -2.0930    2.3778   50.0531 C.3     1  ZINC001356153960   -0.1000
     10 C10        -3.4325    1.7448   49.6039 C.3     1  ZINC001356153960   -0.1200
     11 C11        -7.7452    0.8496   54.0368 C.2     1  ZINC001356153960    0.5100
     12 O12        -7.3652    1.6556   54.8606 O.2     1  ZINC001356153960   -0.5100
     13 N13        -8.9793    0.3166   54.1348 N.am    1  ZINC001356153960   -0.5500
     14 C14        -9.8619    0.7103   55.2358 C.3     1  ZINC001356153960    0.1300
     15 C15        -9.5267   -0.0986   56.4622 C.ar    1  ZINC001356153960   -0.1600
     16 C16        -8.6936    0.4283   57.4307 C.ar    1  ZINC001356153960   -0.0300
     17 C17        -8.3897   -0.3104   58.5589 C.ar    1  ZINC001356153960   -0.1700
     18 C18        -8.9108   -1.5836   58.7145 C.ar    1  ZINC001356153960    0.1400
     19 F19        -8.6096   -2.3074   59.8147 F       1  ZINC001356153960   -0.1300
     20 C20        -9.7410   -2.1148   57.7421 C.ar    1  ZINC001356153960   -0.2000
     21 C21       -10.0491   -1.3721   56.6157 C.ar    1  ZINC001356153960    0.1500
     22 F22       -10.8588   -1.8892   55.6659 F       1  ZINC001356153960   -0.1200
     23 C23        -9.4382   -0.6563   53.1403 C.3     1  ZINC001356153960    0.0700
     24 C24        -9.5739   -0.1771   51.6935 C.3     1  ZINC001356153960   -0.1900
     25 C25       -10.8262   -0.4443   52.5325 C.3     1  ZINC001356153960   -0.1800
     26 H26        -6.3725    2.3304   52.3679 H       1  ZINC001356153960    0.4100
     27 H27        -4.7987    0.0978   51.3497 H       1  ZINC001356153960    0.0800
     28 H28        -5.9442    0.7981   50.1810 H       1  ZINC001356153960    0.0800
     29 H29        -3.7471    2.3583   52.9869 H       1  ZINC001356153960    0.1200
     30 H30        -1.3540    2.6215   52.2187 H       1  ZINC001356153960    0.1300
     31 H31        -1.9809    3.3721   49.6208 H       1  ZINC001356153960    0.0800
     32 H32        -1.2548    1.7429   49.7656 H       1  ZINC001356153960    0.0700
     33 H33        -3.3425    0.6622   49.5137 H       1  ZINC001356153960    0.0800
     34 H34        -3.7821    2.1858   48.6704 H       1  ZINC001356153960    0.0800
     35 H35        -9.7244    1.7699   55.4506 H       1  ZINC001356153960    0.0900
     36 H36       -10.8988    0.5285   54.9529 H       1  ZINC001356153960    0.1400
     37 H37        -8.2828    1.4195   57.3080 H       1  ZINC001356153960    0.1600
     38 H38        -7.7418    0.1040   59.3171 H       1  ZINC001356153960    0.1400
     39 H39       -10.1477   -3.1079   57.8624 H       1  ZINC001356153960    0.1500
     40 H40        -9.1109   -1.6835   53.3016 H       1  ZINC001356153960    0.1400
     41 H41        -9.3219    0.8620   51.4818 H       1  ZINC001356153960    0.1400
     42 H42        -9.3365   -0.8892   50.9032 H       1  ZINC001356153960    0.0900
     43 H43       -11.4119   -1.3319   52.2937 H       1  ZINC001356153960    0.1000
     44 H44       -11.3979    0.4192   52.8727 H       1  ZINC001356153960    0.0900
@<TRIPOS>BOND
     1     1     2    2
     2     2     3   am
     3     2    11    1
     4     3     4    1
     5     3    26    1
     6     4     5    1
     7     4    27    1
     8     4    28    1
     9     5     6    1
    10     5    10    1
    11     5     7    1
    12     7     8    2
    13     7    29    1
    14     8     9    1
    15     8    30    1
    16     9    10    1
    17     9    31    1
    18     9    32    1
    19    10    33    1
    20    10    34    1
    21    11    12    2
    22    11    13   am
    23    13    14    1
    24    13    23    1
    25    14    15    1
    26    14    35    1
    27    14    36    1
    28    15    21   ar
    29    15    16   ar
    30    16    17   ar
    31    16    37    1
    32    17    18   ar
    33    17    38    1
    34    18    19    1
    35    18    20   ar
    36    20    21   ar
    37    20    39    1
    38    21    22    1
    39    23    25    1
    40    23    24    1
    41    23    40    1
    42    24    25    1
    43    24    41    1
    44    24    42    1
    45    25    43    1
    46    25    44    1
@<TRIPOS>SUBSTRUCTURE
     1 ZINC001356153960        1 TEMP              0 ****  ****    0 ROOT


##########                                Name:    ZINC000444205493
##########                DOCK_Rotatable_Bonds:                   4
##########                         Heavy_Atoms:                  24
##########                    Molecular_Weight:             415.351
##########                DOCK_Rotatable_Bonds:                   4
##########                       Formal_Charge:         -0.00999995
##########                     HBond_Acceptors:                   6
##########                        HBond_Donors:                   1
##########                         Heavy_Atoms:                  24
##########                          Grid_Score:          -26.144917
##########                     Grid_vdw_energy:          -25.486605
##########                      Grid_es_energy:           -0.658311
##########           Internal_energy_repulsive:            4.496408

@<TRIPOS>MOLECULE
ZINC000444205493
 47 49 1 0 0
SMALL
USER_CHARGES


@<TRIPOS>ATOM
      1 C1        -11.9072    1.9876   51.1684 C.3     1  ZINC000444205493   -0.1700
      2 C2        -11.7787    1.2383   52.4695 C.2     1  ZINC000444205493    0.5100
      3 O3        -11.5397    1.8403   53.4949 O.2     1  ZINC000444205493   -0.5100
      4 N4        -11.9291   -0.1008   52.4937 N.am    1  ZINC000444205493   -0.6800
      5 C5        -11.8097   -0.7967   53.7022 C.ar    1  ZINC000444205493    0.2300
      6 C6        -12.8920   -0.8784   54.5677 C.ar    1  ZINC000444205493   -0.1400
      7 C7        -12.7712   -1.5665   55.7596 C.ar    1  ZINC000444205493    0.0200
      8 C8        -11.5740   -2.1731   56.0915 C.ar    1  ZINC000444205493   -0.6900
      9 S9        -11.4245   -3.0491   57.6130 S.o2    1  ZINC000444205493    2.7100
     10 O10       -12.7434   -3.2019   58.1193 O.2     1  ZINC000444205493   -0.9500
     11 O11       -10.5567   -4.1458   57.3610 O.2     1  ZINC000444205493   -0.9500
     12 N12       -10.6285   -2.0571   58.6736 N.am    1  ZINC000444205493   -1.0100
     13 C13        -9.2710   -1.5107   58.4870 C.3     1  ZINC000444205493    0.1200
     14 C14        -9.2316   -0.2298   59.3606 C.3     1  ZINC000444205493   -0.1200
     15 C15       -10.0927   -0.6543   60.5660 C.3     1  ZINC000444205493   -0.0700
     16 C16        -9.2464   -1.3921   61.6086 C.3     1  ZINC000444205493   -0.1100
     17 C17        -8.9267   -0.3042   62.6673 C.3     1  ZINC000444205493   -0.1200
     18 C18       -10.2355    0.5244   62.7177 C.3     1  ZINC000444205493   -0.1000
     19 H19       -10.9742    0.0326   63.3506 H       1  ZINC000444205493    0.0700
     20 C20        -9.9540    1.9397   63.2262 C.3     1  ZINC000444205493   -0.1500
     21 C21       -10.7190    0.5603   61.2501 C.3     1  ZINC000444205493   -0.1100
     22 C22       -11.1609   -1.5686   59.9571 C.3     1  ZINC000444205493    0.1300
     23 C23       -10.4936   -2.0944   55.2317 C.ar    1  ZINC000444205493    0.0300
     24 C24       -10.6092   -1.4123   54.0357 C.ar    1  ZINC000444205493   -0.1500
     25 Br25       -9.1317   -1.3049   52.8604 Br      1  ZINC000444205493   -0.0300
     26 H26       -11.7552    3.0522   51.3456 H       1  ZINC000444205493    0.1000
     27 H27       -11.1573    1.6256   50.4650 H       1  ZINC000444205493    0.1000
     28 H28       -12.9022    1.8268   50.7533 H       1  ZINC000444205493    0.1000
     29 H29       -12.1201   -0.5823   51.6736 H       1  ZINC000444205493    0.4200
     30 H30       -13.8274   -0.4043   54.3097 H       1  ZINC000444205493    0.1600
     31 H31       -13.6130   -1.6302   56.4332 H       1  ZINC000444205493    0.1500
     32 H32        -8.5239   -2.2266   58.8299 H       1  ZINC000444205493    0.0800
     33 H33        -9.1041   -1.2602   57.4393 H       1  ZINC000444205493    0.0800
     34 H34        -8.2123    0.0012   59.6702 H       1  ZINC000444205493    0.0900
     35 H35        -9.6804    0.6144   58.8373 H       1  ZINC000444205493    0.0800
     36 H36        -9.8160   -2.2062   62.0568 H       1  ZINC000444205493    0.0700
     37 H37        -8.3281   -1.7691   61.1584 H       1  ZINC000444205493    0.0700
     38 H38        -8.7199   -0.7580   63.6365 H       1  ZINC000444205493    0.0700
     39 H39        -8.0902    0.3151   62.3437 H       1  ZINC000444205493    0.0700
     40 H40        -9.2287    2.4232   62.5719 H       1  ZINC000444205493    0.0500
     41 H41       -10.8797    2.5151   63.2306 H       1  ZINC000444205493    0.0500
     42 H42        -9.5530    1.8890   64.2385 H       1  ZINC000444205493    0.0500
     43 H43       -10.3825    1.4776   60.7669 H       1  ZINC000444205493    0.0700
     44 H44       -11.8062    0.4928   61.2118 H       1  ZINC000444205493    0.0700
     45 H45       -12.0816   -1.0082   59.7950 H       1  ZINC000444205493    0.0700
     46 H46       -11.3504   -2.4124   60.6205 H       1  ZINC000444205493    0.0800
     47 H47        -9.5599   -2.5696   55.4936 H       1  ZINC000444205493    0.1500
@<TRIPOS>BOND
     1     1     2    1
     2     1    26    1
     3     1    27    1
     4     1    28    1
     5     2     3    2
     6     2     4   am
     7     4     5    1
     8     4    29    1
     9     5    24   ar
    10     5     6   ar
    11     6     7   ar
    12     6    30    1
    13     7     8   ar
    14     7    31    1
    15     8     9    1
    16     8    23   ar
    17     9    10    2
    18     9    11    2
    19     9    12   am
    20    12    22    1
    21    12    13    1
    22    13    14    1
    23    13    32    1
    24    13    33    1
    25    14    15    1
    26    14    34    1
    27    14    35    1
    28    15    21    1
    29    15    16    1
    30    15    22    1
    31    16    17    1
    32    16    36    1
    33    16    37    1
    34    17    18    1
    35    17    38    1
    36    17    39    1
    37    18    19    1
    38    18    20    1
    39    18    21    1
    40    20    40    1
    41    20    41    1
    42    20    42    1
    43    21    43    1
    44    21    44    1
    45    22    45    1
    46    22    46    1
    47    23    24   ar
    48    23    47    1
    49    24    25    1
@<TRIPOS>SUBSTRUCTURE
     1 ZINC000444205493        1 TEMP              0 ****  ****    0 ROOT


##########                                Name:    ZINC000864477301
##########                DOCK_Rotatable_Bonds:                   6
##########                         Heavy_Atoms:                  26
##########                    Molecular_Weight:             393.891
##########                DOCK_Rotatable_Bonds:                   6
##########                       Formal_Charge:         -0.00999978
##########                     HBond_Acceptors:                   7
##########                        HBond_Donors:                   1
##########                         Heavy_Atoms:                  26
##########                          Grid_Score:          -26.138651
##########                     Grid_vdw_energy:          -26.056324
##########                      Grid_es_energy:           -0.082326
##########           Internal_energy_repulsive:            6.832693

@<TRIPOS>MOLECULE
ZINC000864477301
 46 47 1 0 0
SMALL
USER_CHARGES


@<TRIPOS>ATOM
      1 C1         -4.5965    3.6301   56.3285 C.3     1  ZINC000864477301   -0.1500
      2 C2         -5.4452    3.6616   55.0560 C.3     1  ZINC000864477301    0.0600
      3 O3         -6.1460    2.3983   54.9101 O.3     1  ZINC000864477301   -0.3500
      4 C4         -6.7396    2.1614   53.7243 C.2     1  ZINC000864477301    0.5100
      5 O5         -6.6431    2.9714   52.8243 O.2     1  ZINC000864477301   -0.5000
      6 C6         -7.5081    0.9167   53.5185 C.ar    1  ZINC000864477301   -0.1400
      7 C7         -6.9891   -0.1037   52.7194 C.ar    1  ZINC000864477301   -0.0300
      8 C8         -7.7122   -1.2636   52.5314 C.ar    1  ZINC000864477301   -0.1500
      9 C9         -8.9490   -1.4165   53.1321 C.ar    1  ZINC000864477301   -0.0100
     10 C10        -9.4693   -0.4090   53.9254 C.ar    1  ZINC000864477301   -0.4900
     11 S11       -11.0455   -0.6144   54.6857 S.o     1  ZINC000864477301    1.3800
     12 O12       -11.4750    0.7235   54.8977 O.2     1  ZINC000864477301   -0.8100
     13 C13       -10.6336   -1.3768   56.2793 C.3     1  ZINC000864477301   -0.4600
     14 H14       -10.2052   -2.3646   56.1095 H       1  ZINC000864477301    0.1400
     15 C15        -9.6192   -0.5007   57.0168 C.3     1  ZINC000864477301   -0.1400
     16 C16       -11.8832   -1.5077   57.1115 C.2     1  ZINC000864477301    0.5500
     17 O17       -12.7038   -0.6145   57.1180 O.2     1  ZINC000864477301   -0.5100
     18 N18       -12.0888   -2.6170   57.8487 N.am    1  ZINC000864477301   -0.6800
     19 C19       -13.2495   -2.7384   58.6217 C.ar    1  ZINC000864477301    0.1400
     20 C20       -13.2955   -2.1940   59.8978 C.ar    1  ZINC000864477301   -0.0600
     21 C21       -12.0954   -1.4713   60.4530 C.3     1  ZINC000864477301   -0.1100
     22 C22       -14.4426   -2.3150   60.6583 C.ar    1  ZINC000864477301   -0.1100
     23 C23       -15.5445   -2.9775   60.1501 C.ar    1  ZINC000864477301   -0.1000
     24 C24       -15.5027   -3.5217   58.8792 C.ar    1  ZINC000864477301   -0.1100
     25 C25       -14.3606   -3.3992   58.1110 C.ar    1  ZINC000864477301   -0.0200
     26 Cl26      -14.3087   -4.0819   56.5158 Cl      1  ZINC000864477301   -0.0600
     27 C27        -8.7544    0.7531   54.1269 C.ar    1  ZINC000864477301    0.0100
     28 H28        -5.2423    3.4710   57.1921 H       1  ZINC000864477301    0.0700
     29 H29        -3.8721    2.8184   56.2621 H       1  ZINC000864477301    0.0700
     30 H30        -4.0705    4.5785   56.4380 H       1  ZINC000864477301    0.0800
     31 H31        -6.1696    4.4733   55.1223 H       1  ZINC000864477301    0.0700
     32 H32        -4.7995    3.8206   54.1923 H       1  ZINC000864477301    0.0700
     33 H33        -6.0240    0.0147   52.2493 H       1  ZINC000864477301    0.1400
     34 H34        -7.3120   -2.0537   51.9134 H       1  ZINC000864477301    0.1400
     35 H35        -9.5112   -2.3262   52.9809 H       1  ZINC000864477301    0.1500
     36 H36        -9.3716   -0.9588   57.9744 H       1  ZINC000864477301    0.0700
     37 H37        -8.7153   -0.4061   56.4149 H       1  ZINC000864477301    0.0700
     38 H38       -10.0476    0.4871   57.1866 H       1  ZINC000864477301    0.0700
     39 H39       -11.4325   -3.3312   57.8437 H       1  ZINC000864477301    0.4100
     40 H40       -12.1578   -0.4135   60.1974 H       1  ZINC000864477301    0.0800
     41 H41       -12.0738   -1.5823   61.5371 H       1  ZINC000864477301    0.0700
     42 H42       -11.1863   -1.8951   60.0263 H       1  ZINC000864477301    0.0700
     43 H43       -14.4785   -1.8920   61.6513 H       1  ZINC000864477301    0.1400
     44 H44       -16.4398   -3.0705   60.7468 H       1  ZINC000864477301    0.1400
     45 H45       -16.3651   -4.0389   58.4851 H       1  ZINC000864477301    0.1400
     46 H46        -9.1614    1.5385   54.7465 H       1  ZINC000864477301    0.1400
@<TRIPOS>BOND
     1     1     2    1
     2     1    28    1
     3     1    29    1
     4     1    30    1
     5     2     3    1
     6     2    31    1
     7     2    32    1
     8     3     4    1
     9     4     5    2
    10     4     6    1
    11     6    27   ar
    12     6     7   ar
    13     7     8   ar
    14     7    33    1
    15     8     9   ar
    16     8    34    1
    17     9    10   ar
    18     9    35    1
    19    10    11    1
    20    10    27   ar
    21    11    12    2
    22    11    13    1
    23    13    14    1
    24    13    15    1
    25    13    16    1
    26    15    36    1
    27    15    37    1
    28    15    38    1
    29    16    17    2
    30    16    18   am
    31    18    19    1
    32    18    39    1
    33    19    25   ar
    34    19    20   ar
    35    20    21    1
    36    20    22   ar
    37    21    40    1
    38    21    41    1
    39    21    42    1
    40    22    23   ar
    41    22    43    1
    42    23    24   ar
    43    23    44    1
    44    24    25   ar
    45    24    45    1
    46    25    26    1
    47    27    46    1
@<TRIPOS>SUBSTRUCTURE
     1 ZINC000864477301        1 TEMP              0 ****  ****    0 ROOT


##########                                Name:    ZINC000053543817
##########                DOCK_Rotatable_Bonds:                   7
##########                         Heavy_Atoms:                  25
##########                    Molecular_Weight:             350.458
##########                DOCK_Rotatable_Bonds:                   7
##########                       Formal_Charge:           0.0199998
##########                     HBond_Acceptors:                   6
##########                        HBond_Donors:                   2
##########                         Heavy_Atoms:                  25
##########                          Grid_Score:          -26.081530
##########                     Grid_vdw_energy:          -26.947077
##########                      Grid_es_energy:            0.865547
##########           Internal_energy_repulsive:           34.119221

@<TRIPOS>MOLECULE
ZINC000053543817
 55 56 1 0 0
SMALL
USER_CHARGES


@<TRIPOS>ATOM
      1 C1         -3.6734    2.9665   51.2759 C.3     1  ZINC000053543817   -0.0700
      2 C2         -2.4913    2.3002   50.6201 C.2     1  ZINC000053543817   -0.0200
      3 C3         -1.3264    1.9918   51.2236 C.2     1  ZINC000053543817   -0.1800
      4 C4         -0.5147    1.3873   50.2470 C.2     1  ZINC000053543817   -0.1900
      5 C5         -1.2256    1.3578   49.1011 C.2     1  ZINC000053543817    0.0000
      6 C6         -0.7092    0.7831   47.8045 C.3     1  ZINC000053543817   -0.0300
      7 C7          0.5084   -0.0957   48.1148 C.3     1  ZINC000053543817   -0.0500
      8 C8          0.0523   -1.3577   48.8497 C.3     1  ZINC000053543817   -0.1500
      9 C9          1.1996   -0.4888   46.8075 C.3     1  ZINC000053543817   -0.1400
     10 C10         1.4898    0.6815   48.9965 C.3     1  ZINC000053543817   -0.1200
     11 C11         0.8877    0.8579   50.3965 C.3     1  ZINC000053543817    0.2200
     12 H12         0.8648   -0.1033   50.9099 H       1  ZINC000053543817    0.1000
     13 N13         1.6952    1.8085   51.1648 N.am    1  ZINC000053543817   -0.7100
     14 C14         2.7668    1.3761   51.8585 C.2     1  ZINC000053543817    0.5100
     15 O15         3.0617    0.1997   51.8478 O.2     1  ZINC000053543817   -0.5300
     16 C16         3.5985    2.3543   52.6474 C.3     1  ZINC000053543817    0.1400
     17 H17         3.0847    3.3145   52.6927 H       1  ZINC000053543817    0.1200
     18 C18         4.9567    2.5344   51.9664 C.3     1  ZINC000053543817   -0.1600
     19 N19         3.7973    1.8422   54.0055 N.am    1  ZINC000053543817   -0.7000
     20 C20         3.0967    2.3644   55.0318 C.2     1  ZINC000053543817    0.6600
     21 O21         2.3015    3.2609   54.8308 O.2     1  ZINC000053543817   -0.5700
     22 O22         3.2782    1.8927   56.2796 O.3     1  ZINC000053543817   -0.3600
     23 C23         2.4782    2.4910   57.3334 C.3     1  ZINC000053543817    0.1400
     24 C24         2.8239    1.8344   58.6714 C.3     1  ZINC000053543817   -0.1800
     25 C25         2.7739    3.9902   57.4094 C.3     1  ZINC000053543817   -0.1400
     26 C26         0.9937    2.2787   57.0296 C.3     1  ZINC000053543817   -0.1800
     27 O27        -2.4230    1.9079   49.3353 O.3     1  ZINC000053543817   -0.1700
     28 H28        -4.4744    3.0853   50.5462 H       1  ZINC000053543817    0.0800
     29 H29        -4.0246    2.3506   52.1037 H       1  ZINC000053543817    0.0800
     30 H30        -3.3763    3.9455   51.6518 H       1  ZINC000053543817    0.0800
     31 H31        -1.0668    2.1737   52.2560 H       1  ZINC000053543817    0.1400
     32 H32        -1.4866    0.1799   47.3357 H       1  ZINC000053543817    0.0900
     33 H33        -0.4161    1.5926   47.1360 H       1  ZINC000053543817    0.0900
     34 H34        -0.6453   -1.9117   48.2217 H       1  ZINC000053543817    0.0600
     35 H35         0.9177   -1.9825   49.0703 H       1  ZINC000053543817    0.0600
     36 H36        -0.4405   -1.0778   49.7807 H       1  ZINC000053543817    0.0600
     37 H37         1.5241    0.4101   46.2835 H       1  ZINC000053543817    0.0600
     38 H38         2.0652   -1.1135   47.0278 H       1  ZINC000053543817    0.0600
     39 H39         0.5016   -1.0432   46.1800 H       1  ZINC000053543817    0.0600
     40 H40         2.4270    0.1301   49.0707 H       1  ZINC000053543817    0.0800
     41 H41         1.6778    1.6604   48.5555 H       1  ZINC000053543817    0.0700
     42 H42         1.4587    2.7491   51.1742 H       1  ZINC000053543817    0.4000
     43 H43         4.8089    2.9153   50.9559 H       1  ZINC000053543817    0.0800
     44 H44         5.5584    3.2419   52.5371 H       1  ZINC000053543817    0.0800
     45 H45         5.4706    1.5741   51.9212 H       1  ZINC000053543817    0.0700
     46 H46         4.4329    1.1274   54.1662 H       1  ZINC000053543817    0.4200
     47 H47         3.8814    1.9856   58.8878 H       1  ZINC000053543817    0.0600
     48 H48         2.2233    2.2835   59.4625 H       1  ZINC000053543817    0.0700
     49 H49         2.6131    0.7663   58.6171 H       1  ZINC000053543817    0.0900
     50 H50         2.5275    4.4580   56.4563 H       1  ZINC000053543817    0.0700
     51 H51         2.1733    4.4393   58.2006 H       1  ZINC000053543817    0.0800
     52 H52         3.8314    4.1414   57.6259 H       1  ZINC000053543817    0.0700
     53 H53         0.7830    1.2107   56.9753 H       1  ZINC000053543817    0.0900
     54 H54         0.3931    2.7279   57.8206 H       1  ZINC000053543817    0.0700
     55 H55         0.7475    2.7465   56.0764 H       1  ZINC000053543817    0.0600
@<TRIPOS>BOND
     1     1     2    1
     2     1    28    1
     3     1    29    1
     4     1    30    1
     5     2    27    1
     6     2     3    2
     7     3     4    1
     8     3    31    1
     9     4    11    1
    10     4     5    2
    11     5     6    1
    12     5    27    1
    13     6     7    1
    14     6    32    1
    15     6    33    1
    16     7     8    1
    17     7     9    1
    18     7    10    1
    19     8    34    1
    20     8    35    1
    21     8    36    1
    22     9    37    1
    23     9    38    1
    24     9    39    1
    25    10    11    1
    26    10    40    1
    27    10    41    1
    28    11    12    1
    29    11    13    1
    30    13    14   am
    31    13    42    1
    32    14    15    2
    33    14    16    1
    34    16    17    1
    35    16    18    1
    36    16    19    1
    37    18    43    1
    38    18    44    1
    39    18    45    1
    40    19    20   am
    41    19    46    1
    42    20    21    2
    43    20    22    1
    44    22    23    1
    45    23    24    1
    46    23    25    1
    47    23    26    1
    48    24    47    1
    49    24    48    1
    50    24    49    1
    51    25    50    1
    52    25    51    1
    53    25    52    1
    54    26    53    1
    55    26    54    1
    56    26    55    1
@<TRIPOS>SUBSTRUCTURE
     1 ZINC000053543817        1 TEMP              0 ****  ****    0 ROOT


##########                                Name:    ZINC001456096501
##########                DOCK_Rotatable_Bonds:                   7
##########                         Heavy_Atoms:                  24
##########                    Molecular_Weight:             333.431
##########                DOCK_Rotatable_Bonds:                   7
##########                       Formal_Charge:          -0.0200003
##########                     HBond_Acceptors:                   6
##########                        HBond_Donors:                   0
##########                         Heavy_Atoms:                  24
##########                          Grid_Score:          -26.063549
##########                     Grid_vdw_energy:          -25.235964
##########                      Grid_es_energy:           -0.827586
##########           Internal_energy_repulsive:          134.244293

@<TRIPOS>MOLECULE
ZINC001456096501
 51 52 1 0 0
SMALL
USER_CHARGES


@<TRIPOS>ATOM
      1 C1         -2.7381    2.2369   46.4595 C.3     1  ZINC001456096501    0.0400
      2 O2         -1.8256    2.0421   47.5418 O.3     1  ZINC001456096501   -0.2900
      3 C3         -1.4077    0.7748   47.7732 C.ar    1  ZINC001456096501    0.3700
      4 N4         -1.7154   -0.1850   46.9176 N.ar    1  ZINC001456096501   -0.5400
      5 C5         -1.3288   -1.4324   47.1037 C.ar    1  ZINC001456096501    0.1600
      6 C6         -0.5799   -1.7927   48.2093 C.ar    1  ZINC001456096501   -0.2200
      7 C7         -0.2294   -0.8281   49.1376 C.ar    1  ZINC001456096501   -0.0200
      8 C8         -0.6460    0.4895   48.9165 C.ar    1  ZINC001456096501   -0.2000
      9 C9         -0.2996    1.5573   49.8738 C.2     1  ZINC001456096501    0.5900
     10 O10         0.8662    1.8316   50.0829 O.2     1  ZINC001456096501   -0.5100
     11 N11        -1.2757    2.2289   50.5163 N.am    1  ZINC001456096501   -0.6200
     12 C12        -1.0729    3.3107   51.4911 C.3     1  ZINC001456096501    0.1000
     13 C13        -2.4679    3.7560   51.9781 C.3     1  ZINC001456096501   -0.1200
     14 C14        -3.3533    2.5186   51.6748 C.3     1  ZINC001456096501   -0.1200
     15 H15        -3.2693    1.7744   52.4668 H       1  ZINC001456096501    0.0900
     16 C16        -4.8124    2.9271   51.4625 C.3     1  ZINC001456096501    0.1200
     17 N17        -5.6659    1.7377   51.5212 N.am    1  ZINC001456096501   -0.6200
     18 C18        -5.4587    0.6401   50.5734 C.3     1  ZINC001456096501    0.0600
     19 C19        -6.6414    1.6533   52.4473 C.2     1  ZINC001456096501    0.5200
     20 O20        -6.8130    2.5620   53.2319 O.2     1  ZINC001456096501   -0.5300
     21 C21        -7.5192    0.4299   52.5075 C.3     1  ZINC001456096501   -0.0800
     22 C22        -8.4806    0.4328   51.3172 C.3     1  ZINC001456096501   -0.1300
     23 C23        -6.6475   -0.8265   52.4559 C.3     1  ZINC001456096501   -0.1500
     24 C24        -8.3210    0.4410   53.8106 C.3     1  ZINC001456096501   -0.1700
     25 C25        -2.7237    2.0047   50.3534 C.3     1  ZINC001456096501    0.1200
     26 H26        -2.2749    1.9068   45.5296 H       1  ZINC001456096501    0.0600
     27 H27        -3.6441    1.6580   46.6395 H       1  ZINC001456096501    0.0600
     28 H28        -2.9916    3.2943   46.3838 H       1  ZINC001456096501    0.1000
     29 H29        -1.6022   -2.1859   46.3801 H       1  ZINC001456096501    0.1700
     30 H30        -0.2716   -2.8185   48.3473 H       1  ZINC001456096501    0.1500
     31 H31         0.3546   -1.0850   50.0090 H       1  ZINC001456096501    0.1500
     32 H32        -0.4853    2.9454   52.3334 H       1  ZINC001456096501    0.0700
     33 H33        -0.5618    4.1476   51.0151 H       1  ZINC001456096501    0.0700
     34 H34        -2.4537    3.9673   53.0473 H       1  ZINC001456096501    0.0900
     35 H35        -2.8132    4.6243   51.4169 H       1  ZINC001456096501    0.0800
     36 H36        -5.1108    3.6273   52.2427 H       1  ZINC001456096501    0.0800
     37 H37        -4.9184    3.4026   50.4874 H       1  ZINC001456096501    0.0900
     38 H38        -4.7888   -0.0986   51.0135 H       1  ZINC001456096501    0.0600
     39 H39        -6.4161    0.1717   50.3448 H       1  ZINC001456096501    0.0900
     40 H40        -5.0170    1.0303   49.6564 H       1  ZINC001456096501    0.0700
     41 H41        -7.9094    0.4248   50.3889 H       1  ZINC001456096501    0.0600
     42 H42        -9.1155   -0.4520   51.3608 H       1  ZINC001456096501    0.0600
     43 H43        -9.1016    1.3278   51.3540 H       1  ZINC001456096501    0.0600
     44 H44        -5.8767   -0.7656   53.2242 H       1  ZINC001456096501    0.0700
     45 H45        -7.2669   -1.7060   52.6315 H       1  ZINC001456096501    0.0700
     46 H46        -6.1778   -0.9027   51.4753 H       1  ZINC001456096501    0.0600
     47 H47        -8.9421    1.3361   53.8474 H       1  ZINC001456096501    0.0600
     48 H48        -8.9560   -0.4438   53.8541 H       1  ZINC001456096501    0.0700
     49 H49        -7.6362    0.4390   54.6586 H       1  ZINC001456096501    0.0800
     50 H50        -3.1074    2.5710   49.5048 H       1  ZINC001456096501    0.0800
     51 H51        -2.9273    0.9417   50.2244 H       1  ZINC001456096501    0.0700
@<TRIPOS>BOND
     1     1     2    1
     2     1    26    1
     3     1    27    1
     4     1    28    1
     5     2     3    1
     6     3     8   ar
     7     3     4   ar
     8     4     5   ar
     9     5     6   ar
    10     5    29    1
    11     6     7   ar
    12     6    30    1
    13     7     8   ar
    14     7    31    1
    15     8     9    1
    16     9    10    2
    17     9    11   am
    18    11    25    1
    19    11    12    1
    20    12    13    1
    21    12    32    1
    22    12    33    1
    23    13    14    1
    24    13    34    1
    25    13    35    1
    26    14    15    1
    27    14    16    1
    28    14    25    1
    29    16    17    1
    30    16    36    1
    31    16    37    1
    32    17    18    1
    33    17    19   am
    34    18    38    1
    35    18    39    1
    36    18    40    1
    37    19    20    2
    38    19    21    1
    39    21    22    1
    40    21    23    1
    41    21    24    1
    42    22    41    1
    43    22    42    1
    44    22    43    1
    45    23    44    1
    46    23    45    1
    47    23    46    1
    48    24    47    1
    49    24    48    1
    50    24    49    1
    51    25    50    1
    52    25    51    1
@<TRIPOS>SUBSTRUCTURE
     1 ZINC001456096501        1 TEMP              0 ****  ****    0 ROOT


##########                                Name:    ZINC000942890482
##########                DOCK_Rotatable_Bonds:                   8
##########                         Heavy_Atoms:                  25
##########                    Molecular_Weight:             346.445
##########                DOCK_Rotatable_Bonds:                   8
##########                       Formal_Charge:          -0.0100004
##########                     HBond_Acceptors:                   5
##########                        HBond_Donors:                   0
##########                         Heavy_Atoms:                  25
##########                          Grid_Score:          -26.051022
##########                     Grid_vdw_energy:          -25.661451
##########                      Grid_es_energy:           -0.389570
##########           Internal_energy_repulsive:           24.848162

@<TRIPOS>MOLECULE
ZINC000942890482
 52 54 1 0 0
SMALL
USER_CHARGES


@<TRIPOS>ATOM
      1 C1        -11.2597    2.3431   57.1822 C.3     1  ZINC000942890482   -0.1700
      2 C2        -11.9156    1.1893   56.4209 C.3     1  ZINC000942890482    0.1000
      3 N3        -10.9177    0.5356   55.5706 N.am    1  ZINC000942890482   -0.6000
      4 C4        -10.5051    1.1327   54.4348 C.2     1  ZINC000942890482    0.5700
      5 O5        -10.9610    2.2136   54.1162 O.2     1  ZINC000942890482   -0.5100
      6 C6         -9.4989    0.4736   53.5774 C.ar    1  ZINC000942890482   -0.1400
      7 C7         -9.9049   -0.2936   52.4836 C.ar    1  ZINC000942890482   -0.0600
      8 C8         -8.9617   -0.9060   51.6862 C.ar    1  ZINC000942890482   -0.1600
      9 C9         -7.6122   -0.7615   51.9689 C.ar    1  ZINC000942890482    0.1300
     10 F10        -6.6919   -1.3639   51.1844 F       1  ZINC000942890482   -0.1300
     11 C11        -7.2035   -0.0004   53.0537 C.ar    1  ZINC000942890482   -0.1600
     12 C12        -8.1378    0.6202   53.8544 C.ar    1  ZINC000942890482   -0.0100
     13 C13        -7.6922    1.4471   55.0328 C.3     1  ZINC000942890482   -0.1200
     14 C14       -10.3684   -0.7671   55.9546 C.3     1  ZINC000942890482    0.1400
     15 H15        -9.5011   -1.0183   55.3441 H       1  ZINC000942890482    0.1100
     16 C16       -11.4508   -1.8751   55.8658 C.3     1  ZINC000942890482   -0.1500
     17 C17       -10.9609   -2.9199   56.8906 C.3     1  ZINC000942890482    0.1100
     18 N18       -10.0760   -2.2228   57.8355 N.am    1  ZINC000942890482   -0.6200
     19 C19        -9.4276   -2.7923   58.8707 C.2     1  ZINC000942890482    0.5300
     20 O20        -9.5505   -3.9799   59.0839 O.2     1  ZINC000942890482   -0.5400
     21 C21        -8.5499   -1.9534   59.7635 C.3     1  ZINC000942890482   -0.1300
     22 C22        -9.2441   -1.7450   61.1109 C.3     1  ZINC000942890482   -0.0700
     23 C23       -10.0699   -0.4577   61.0654 C.3     1  ZINC000942890482   -0.1600
     24 C24       -10.0565    0.4343   62.3083 C.3     1  ZINC000942890482   -0.1800
     25 C25        -9.3089    0.8694   61.0463 C.3     1  ZINC000942890482   -0.1800
     26 C26       -10.0137   -0.7975   57.4623 C.3     1  ZINC000942890482    0.0900
     27 H27       -10.4512    1.9561   57.8024 H       1  ZINC000942890482    0.0600
     28 H28       -10.8584    3.0657   56.4716 H       1  ZINC000942890482    0.0600
     29 H29       -12.0022    2.8295   57.8148 H       1  ZINC000942890482    0.0700
     30 H30       -12.3168    0.4668   57.1315 H       1  ZINC000942890482    0.0900
     31 H31       -12.7241    1.5763   55.8006 H       1  ZINC000942890482    0.0900
     32 H32       -10.9560   -0.4071   52.2627 H       1  ZINC000942890482    0.1400
     33 H33        -9.2746   -1.5000   50.8402 H       1  ZINC000942890482    0.1400
     34 H34        -6.1508    0.1090   53.2694 H       1  ZINC000942890482    0.1400
     35 H35        -7.4761    2.4632   54.7028 H       1  ZINC000942890482    0.0900
     36 H36        -8.4840    1.4689   55.7816 H       1  ZINC000942890482    0.0700
     37 H37        -6.7941    1.0071   55.4665 H       1  ZINC000942890482    0.0700
     38 H38       -12.4275   -1.4839   56.1509 H       1  ZINC000942890482    0.1000
     39 H39       -11.4831   -2.3034   54.8640 H       1  ZINC000942890482    0.0900
     40 H40       -11.8118   -3.3438   57.4236 H       1  ZINC000942890482    0.0700
     41 H41       -10.4096   -3.7096   56.3802 H       1  ZINC000942890482    0.0700
     42 H42        -7.5987   -2.4622   59.9196 H       1  ZINC000942890482    0.0900
     43 H43        -8.3718   -0.9864   59.2930 H       1  ZINC000942890482    0.0900
     44 H44        -9.9005   -2.5907   61.3161 H       1  ZINC000942890482    0.0700
     45 H45        -8.4941   -1.6678   61.8980 H       1  ZINC000942890482    0.0700
     46 H46       -10.9977   -0.5143   60.4960 H       1  ZINC000942890482    0.1000
     47 H47       -10.9756    0.9649   62.5569 H       1  ZINC000942890482    0.0900
     48 H48        -9.4594    0.1043   63.1584 H       1  ZINC000942890482    0.0900
     49 H49        -8.2200    0.8255   61.0661 H       1  ZINC000942890482    0.0900
     50 H50        -9.7362    1.6862   60.4646 H       1  ZINC000942890482    0.0900
     51 H51        -9.0094   -0.4063   57.6248 H       1  ZINC000942890482    0.0800
     52 H52       -10.7426   -0.2233   58.0343 H       1  ZINC000942890482    0.0900
@<TRIPOS>BOND
     1     1     2    1
     2     1    27    1
     3     1    28    1
     4     1    29    1
     5     2     3    1
     6     2    30    1
     7     2    31    1
     8     3     4   am
     9     3    14    1
    10     4     5    2
    11     4     6    1
    12     6    12   ar
    13     6     7   ar
    14     7     8   ar
    15     7    32    1
    16     8     9   ar
    17     8    33    1
    18     9    10    1
    19     9    11   ar
    20    11    12   ar
    21    11    34    1
    22    12    13    1
    23    13    35    1
    24    13    36    1
    25    13    37    1
    26    14    15    1
    27    14    26    1
    28    14    16    1
    29    16    17    1
    30    16    38    1
    31    16    39    1
    32    17    18    1
    33    17    40    1
    34    17    41    1
    35    18    19   am
    36    18    26    1
    37    19    20    2
    38    19    21    1
    39    21    22    1
    40    21    42    1
    41    21    43    1
    42    22    23    1
    43    22    44    1
    44    22    45    1
    45    23    25    1
    46    23    24    1
    47    23    46    1
    48    24    25    1
    49    24    47    1
    50    24    48    1
    51    25    49    1
    52    25    50    1
    53    26    51    1
    54    26    52    1
@<TRIPOS>SUBSTRUCTURE
     1 ZINC000942890482        1 TEMP              0 ****  ****    0 ROOT


##########                                Name:    ZINC001060733018
##########                DOCK_Rotatable_Bonds:                   7
##########                         Heavy_Atoms:                  24
##########                    Molecular_Weight:             342.429
##########                DOCK_Rotatable_Bonds:                   7
##########                       Formal_Charge:           0.0200001
##########                     HBond_Acceptors:                   6
##########                        HBond_Donors:                   2
##########                         Heavy_Atoms:                  24
##########                          Grid_Score:          -26.042320
##########                     Grid_vdw_energy:          -24.336946
##########                      Grid_es_energy:           -1.705374
##########           Internal_energy_repulsive:            9.700595

@<TRIPOS>MOLECULE
ZINC001060733018
 52 54 1 0 0
SMALL
USER_CHARGES


@<TRIPOS>ATOM
      1 O1         -8.3758    0.7494   51.7366 O.2     1  ZINC001060733018   -0.5000
      2 C2         -7.3639    0.1854   52.0956 C.2     1  ZINC001060733018    0.4700
      3 N3         -6.8733    0.4036   53.3319 N.am    1  ZINC001060733018   -0.7100
      4 C4         -7.5600    1.3250   54.2404 C.3     1  ZINC001060733018    0.1200
      5 C5         -8.3551    0.5245   55.2737 C.3     1  ZINC001060733018   -0.1000
      6 H6         -7.6794   -0.1293   55.8251 H       1  ZINC001060733018    0.0800
      7 C7         -9.0409    1.4862   56.2463 C.3     1  ZINC001060733018   -0.1100
      8 C8         -9.8360    0.6856   57.2797 C.3     1  ZINC001060733018   -0.1300
      9 C9        -10.8939   -0.1589   56.5665 C.3     1  ZINC001060733018    0.1400
     10 H10       -11.5696    0.4950   56.0151 H       1  ZINC001060733018    0.0900
     11 N11       -11.6552   -0.9254   57.5560 N.am    1  ZINC001060733018   -0.7300
     12 C12       -13.0023   -0.9292   57.5143 C.2     1  ZINC001060733018    0.5200
     13 O13       -13.5843   -0.2992   56.6567 O.2     1  ZINC001060733018   -0.5400
     14 C14       -13.7855   -1.7163   58.5332 C.3     1  ZINC001060733018   -0.1000
     15 H15       -13.2276   -2.6115   58.8079 H       1  ZINC001060733018    0.1000
     16 C16       -15.1357   -2.1191   57.9385 C.3     1  ZINC001060733018   -0.1100
     17 C17       -15.9067   -2.9811   58.9392 C.3     1  ZINC001060733018   -0.1200
     18 C18       -16.2030   -2.1600   60.1980 C.3     1  ZINC001060733018   -0.0800
     19 C19       -14.8826   -1.6349   60.7692 C.3     1  ZINC001060733018   -0.1300
     20 C20       -14.1712   -2.4918   61.8161 C.3     1  ZINC001060733018   -0.1700
     21 C21       -14.8659   -1.1933   62.2321 C.3     1  ZINC001060733018   -0.1700
     22 C22       -14.0135   -0.8544   59.7788 C.3     1  ZINC001060733018   -0.0600
     23 C23       -10.2082   -1.1205   55.5939 C.3     1  ZINC001060733018   -0.1200
     24 C24        -9.4131   -0.3200   54.5606 C.3     1  ZINC001060733018   -0.1100
     25 C25        -6.6585   -0.7639   51.1617 C.3     1  ZINC001060733018    0.2600
     26 F26        -6.0626   -1.7901   51.9027 F       1  ZINC001060733018   -0.1700
     27 F27        -7.5839   -1.3116   50.2668 F       1  ZINC001060733018   -0.1900
     28 H28        -6.0655   -0.0496   53.6200 H       1  ZINC001060733018    0.4100
     29 H29        -6.8249    1.9477   54.7504 H       1  ZINC001060733018    0.0800
     30 H30        -8.2396    1.9584   53.6702 H       1  ZINC001060733018    0.0800
     31 H31        -8.2872    2.0878   56.7544 H       1  ZINC001060733018    0.0700
     32 H32        -9.7165    2.1400   55.6949 H       1  ZINC001060733018    0.0700
     33 H33       -10.3245    1.3707   57.9725 H       1  ZINC001060733018    0.0700
     34 H34        -9.1603    0.0319   57.8310 H       1  ZINC001060733018    0.0600
     35 H35       -11.1897   -1.4302   58.2411 H       1  ZINC001060733018    0.4000
     36 H36       -15.7134   -1.2231   57.7115 H       1  ZINC001060733018    0.0700
     37 H37       -14.9731   -2.6871   57.0225 H       1  ZINC001060733018    0.0700
     38 H38       -16.8443   -3.3087   58.4900 H       1  ZINC001060733018    0.0700
     39 H39       -15.3079   -3.8519   59.2059 H       1  ZINC001060733018    0.0700
     40 H40       -16.8497   -1.3206   59.9425 H       1  ZINC001060733018    0.0700
     41 H41       -16.6957   -2.7908   60.9378 H       1  ZINC001060733018    0.0700
     42 H42       -14.6444   -3.4305   62.1043 H       1  ZINC001060733018    0.0900
     43 H43       -13.0812   -2.4985   61.8051 H       1  ZINC001060733018    0.0900
     44 H44       -14.2329   -0.3457   62.4948 H       1  ZINC001060733018    0.0900
     45 H45       -15.7962   -1.2774   62.7939 H       1  ZINC001060733018    0.0900
     46 H46       -13.0546   -0.6195   60.2409 H       1  ZINC001060733018    0.0700
     47 H47       -14.5205    0.0683   59.4966 H       1  ZINC001060733018    0.0800
     48 H48       -10.9619   -1.7222   55.0859 H       1  ZINC001060733018    0.0700
     49 H49        -9.5325   -1.7744   56.1453 H       1  ZINC001060733018    0.0700
     50 H50       -10.0888    0.3338   54.0092 H       1  ZINC001060733018    0.0700
     51 H51        -8.9246   -1.0051   53.8677 H       1  ZINC001060733018    0.0700
     52 H52        -5.8915   -0.2242   50.6063 H       1  ZINC001060733018    0.1400
@<TRIPOS>BOND
     1     1     2    2
     2     2     3   am
     3     2    25    1
     4     3     4    1
     5     3    28    1
     6     4     5    1
     7     4    29    1
     8     4    30    1
     9     5     6    1
    10     5    24    1
    11     5     7    1
    12     7     8    1
    13     7    31    1
    14     7    32    1
    15     8     9    1
    16     8    33    1
    17     8    34    1
    18     9    10    1
    19     9    11    1
    20     9    23    1
    21    11    12   am
    22    11    35    1
    23    12    13    2
    24    12    14    1
    25    14    15    1
    26    14    22    1
    27    14    16    1
    28    16    17    1
    29    16    36    1
    30    16    37    1
    31    17    18    1
    32    17    38    1
    33    17    39    1
    34    18    19    1
    35    18    40    1
    36    18    41    1
    37    19    21    1
    38    19    20    1
    39    19    22    1
    40    20    21    1
    41    20    42    1
    42    20    43    1
    43    21    44    1
    44    21    45    1
    45    22    46    1
    46    22    47    1
    47    23    24    1
    48    23    48    1
    49    23    49    1
    50    24    50    1
    51    24    51    1
    52    25    26    1
    53    25    27    1
    54    25    52    1
@<TRIPOS>SUBSTRUCTURE
     1 ZINC001060733018        1 TEMP              0 ****  ****    0 ROOT


##########                                Name:    ZINC001039666729
##########                DOCK_Rotatable_Bonds:                   3
##########                         Heavy_Atoms:                  25
##########                    Molecular_Weight:             344.376
##########                DOCK_Rotatable_Bonds:                   3
##########                       Formal_Charge:          -0.0199998
##########                     HBond_Acceptors:                  10
##########                        HBond_Donors:                   2
##########                         Heavy_Atoms:                  25
##########                          Grid_Score:          -26.039009
##########                     Grid_vdw_energy:          -25.504971
##########                      Grid_es_energy:           -0.534039
##########           Internal_energy_repulsive:           26.458094

@<TRIPOS>MOLECULE
ZINC001039666729
 45 47 1 0 0
SMALL
USER_CHARGES


@<TRIPOS>ATOM
      1 C1         -5.0973    2.7301   52.4666 C.3     1  ZINC001039666729   -0.1100
      2 C2         -3.5997    2.8973   52.4446 C.ar    1  ZINC001039666729    0.2200
      3 C3         -2.8804    2.9311   53.6286 C.ar    1  ZINC001039666729   -0.3000
      4 C4         -1.5044    3.0866   53.5639 C.ar    1  ZINC001039666729    0.1900
      5 N5         -0.9226    3.1975   52.3813 N.ar    1  ZINC001039666729   -0.5800
      6 C6         -1.6397    3.1612   51.2676 C.ar    1  ZINC001039666729    0.6000
      7 N7         -0.9983    3.2797   50.0468 N.pl3   1  ZINC001039666729   -0.5900
      8 C8          0.0338    4.3192   49.7486 C.3     1  ZINC001039666729    0.1200
      9 C9          1.3645    3.8399   50.3329 C.3     1  ZINC001039666729    0.0900
     10 N10         1.7507    2.5814   49.6475 N.am    1  ZINC001039666729   -0.7400
     11 C11         1.4325    1.4403   50.3357 C.2     1  ZINC001039666729    0.5200
     12 O12         0.8799    1.4999   51.4136 O.2     1  ZINC001039666729   -0.5200
     13 C13         1.7842    0.1093   49.7227 C.3     1  ZINC001039666729   -0.1500
     14 C14         0.5068   -0.7022   49.4976 C.3     1  ZINC001039666729    0.1100
     15 N15        -0.4138    0.0990   48.6501 N.am    1  ZINC001039666729   -0.6100
     16 C16        -0.3844    0.0578   47.3033 C.2     1  ZINC001039666729    0.6100
     17 O17         0.4175   -0.6571   46.7344 O.2     1  ZINC001039666729   -0.5200
     18 C18        -1.3272    0.8817   46.5179 C.2     1  ZINC001039666729   -0.0400
     19 N19        -2.6415    0.9542   46.6637 N.2     1  ZINC001039666729   -0.2500
     20 N20        -3.1042    1.7796   45.7929 N.pl3   1  ZINC001039666729   -0.2300
     21 N21        -2.1605    2.2653   45.0683 N.2     1  ZINC001039666729   -0.2800
     22 C22        -1.0159    1.7599   45.4607 C.2     1  ZINC001039666729    0.0400
     23 C23        -1.3698    0.9491   49.4061 C.3     1  ZINC001039666729    0.1100
     24 C24        -1.2562    2.3785   48.8824 C.3     1  ZINC001039666729    0.1300
     25 N25        -2.9553    3.0084   51.2946 N.ar    1  ZINC001039666729   -0.5700
     26 H26        -5.3448    1.6689   52.4370 H       1  ZINC001039666729    0.0800
     27 H27        -5.4989    3.1714   53.3788 H       1  ZINC001039666729    0.0800
     28 H28        -5.5314    3.2287   51.6000 H       1  ZINC001039666729    0.0800
     29 H29        -3.3810    2.8387   54.5811 H       1  ZINC001039666729    0.1400
     30 H30        -0.9147    3.1172   54.4681 H       1  ZINC001039666729    0.1600
     31 H31         0.1288    4.4462   48.6702 H       1  ZINC001039666729    0.0800
     32 H32        -0.2517    5.2653   50.2085 H       1  ZINC001039666729    0.0900
     33 H33         2.1311    4.5972   50.1694 H       1  ZINC001039666729    0.0800
     34 H34         1.2513    3.6562   51.4013 H       1  ZINC001039666729    0.1000
     35 H35         2.1922    2.5680   48.7838 H       1  ZINC001039666729    0.4100
     36 H36         2.2854    0.2700   48.7681 H       1  ZINC001039666729    0.0800
     37 H37         2.4476   -0.4360   50.3940 H       1  ZINC001039666729    0.1100
     38 H38         0.7499   -1.6374   48.9932 H       1  ZINC001039666729    0.1100
     39 H39         0.0328   -0.9141   50.4561 H       1  ZINC001039666729    0.0900
     40 H40        -4.0425    2.0056   45.6955 H       1  ZINC001039666729    0.4700
     41 H41        -0.0376    1.9680   45.0531 H       1  ZINC001039666729    0.2100
     42 H42        -2.3850    0.5805   49.2585 H       1  ZINC001039666729    0.0800
     43 H43        -1.1213    0.9269   50.4671 H       1  ZINC001039666729    0.1200
     44 H44        -2.1878    2.6683   48.3964 H       1  ZINC001039666729    0.0700
     45 H45        -0.4320    2.4467   48.1724 H       1  ZINC001039666729    0.0900
@<TRIPOS>BOND
     1     1     2    1
     2     1    26    1
     3     1    27    1
     4     1    28    1
     5     2    25   ar
     6     2     3   ar
     7     3     4   ar
     8     3    29    1
     9     4     5   ar
    10     4    30    1
    11     5     6   ar
    12     6     7    1
    13     6    25   ar
    14     7    24    1
    15     7     8    1
    16     8     9    1
    17     8    31    1
    18     8    32    1
    19     9    10    1
    20     9    33    1
    21     9    34    1
    22    10    11   am
    23    10    35    1
    24    11    12    2
    25    11    13    1
    26    13    14    1
    27    13    36    1
    28    13    37    1
    29    14    15    1
    30    14    38    1
    31    14    39    1
    32    15    16   am
    33    15    23    1
    34    16    17    2
    35    16    18    1
    36    18    22    1
    37    18    19    2
    38    19    20    1
    39    20    21    1
    40    20    40    1
    41    21    22    2
    42    22    41    1
    43    23    24    1
    44    23    42    1
    45    23    43    1
    46    24    44    1
    47    24    45    1
@<TRIPOS>SUBSTRUCTURE
     1 ZINC001039666729        1 TEMP              0 ****  ****    0 ROOT


##########                                Name:    ZINC000054627026
##########                DOCK_Rotatable_Bonds:                   5
##########                         Heavy_Atoms:                  28
##########                    Molecular_Weight:              370.37
##########                DOCK_Rotatable_Bonds:                   5
##########                       Formal_Charge:         6.85453e-07
##########                     HBond_Acceptors:                   8
##########                        HBond_Donors:                   2
##########                         Heavy_Atoms:                  28
##########                          Grid_Score:          -25.982006
##########                     Grid_vdw_energy:          -24.552774
##########                      Grid_es_energy:           -1.429232
##########           Internal_energy_repulsive:            4.887581

@<TRIPOS>MOLECULE
ZINC000054627026
 42 46 1 0 0
SMALL
USER_CHARGES


@<TRIPOS>ATOM
      1 O1         -8.4673   -1.0289   64.6172 O.2     1  ZINC000054627026   -0.5200
      2 C2         -7.9691    0.0204   64.2573 C.2     1  ZINC000054627026    0.6100
      3 N3         -8.2252    0.4999   63.0240 N.am    1  ZINC000054627026   -0.6500
      4 C4         -9.0604   -0.2132   62.1550 C.ar    1  ZINC000054627026    0.1400
      5 C5         -8.5174   -0.8569   61.0450 C.ar    1  ZINC000054627026   -0.0900
      6 C6         -9.3283   -1.5624   60.1819 C.ar    1  ZINC000054627026   -0.0900
      7 C7        -10.6937   -1.6341   60.4167 C.ar    1  ZINC000054627026    0.0500
      8 N8        -11.7472   -2.2442   59.7582 N.pl3   1  ZINC000054627026   -0.5900
      9 C9        -12.8855   -1.9632   60.4687 C.2     1  ZINC000054627026    0.3700
     10 C10       -14.2377   -2.4208   60.1165 C.2     1  ZINC000054627026    0.0200
     11 C11       -15.3225   -2.4230   60.9420 C.2     1  ZINC000054627026   -0.1200
     12 C12       -16.3976   -2.9393   60.1962 C.2     1  ZINC000054627026   -0.2200
     13 C13       -15.9249   -3.2247   58.9652 C.2     1  ZINC000054627026   -0.0100
     14 O14       -14.6225   -2.9059   58.9190 O.3     1  ZINC000054627026   -0.1700
     15 N15       -12.5851   -1.2235   61.5121 N.2     1  ZINC000054627026   -0.4600
     16 C16       -11.2510   -0.9875   61.5346 C.ar    1  ZINC000054627026    0.0700
     17 C17       -10.4182   -0.2790   62.4063 C.ar    1  ZINC000054627026   -0.0900
     18 C18        -7.0895    0.7714   65.1725 C.2     1  ZINC000054627026   -0.1000
     19 C19        -6.4686    1.9555   64.8911 C.2     1  ZINC000054627026    0.1000
     20 N20        -5.7644    2.2982   65.9918 N.pl3   1  ZINC000054627026   -0.3100
     21 C21        -4.9716    3.4432   66.1545 C.ar    1  ZINC000054627026    0.1300
     22 C22        -4.2978    3.6587   67.3491 C.ar    1  ZINC000054627026   -0.1200
     23 C23        -3.5173    4.7872   67.5064 C.ar    1  ZINC000054627026   -0.1000
     24 C24        -3.4067    5.7023   66.4755 C.ar    1  ZINC000054627026   -0.1100
     25 C25        -4.0770    5.4906   65.2847 C.ar    1  ZINC000054627026   -0.1000
     26 C26        -4.8541    4.3609   65.1194 C.ar    1  ZINC000054627026   -0.1000
     27 N27        -5.9797    1.2884   66.9405 N.2     1  ZINC000054627026   -0.0500
     28 N28        -6.7679    0.4096   66.4266 N.2     1  ZINC000054627026   -0.2000
     29 H29        -7.8312    1.3390   62.7383 H       1  ZINC000054627026    0.4200
     30 H30        -7.4549   -0.8024   60.8596 H       1  ZINC000054627026    0.1500
     31 H31        -8.9010   -2.0589   59.3231 H       1  ZINC000054627026    0.1300
     32 H32       -11.6907   -2.7713   58.9458 H       1  ZINC000054627026    0.4300
     33 H33       -15.3508   -2.0929   61.9700 H       1  ZINC000054627026    0.1600
     34 H34       -17.4103   -3.0808   60.5437 H       1  ZINC000054627026    0.1600
     35 H35       -16.5008   -3.6384   58.1504 H       1  ZINC000054627026    0.2100
     36 H36       -10.8343    0.2170   63.2708 H       1  ZINC000054627026    0.1400
     37 H37        -6.5288    2.5105   63.9666 H       1  ZINC000054627026    0.2100
     38 H38        -4.3843    2.9447   68.1549 H       1  ZINC000054627026    0.1400
     39 H39        -2.9929    4.9553   68.4354 H       1  ZINC000054627026    0.1400
     40 H40        -2.7961    6.5842   66.6009 H       1  ZINC000054627026    0.1400
     41 H41        -3.9891    6.2073   64.4816 H       1  ZINC000054627026    0.1400
     42 H42        -5.3774    4.1961   64.1891 H       1  ZINC000054627026    0.1400
@<TRIPOS>BOND
     1     1     2    2
     2     2     3   am
     3     2    18    1
     4     3     4    1
     5     3    29    1
     6     4    17   ar
     7     4     5   ar
     8     5     6   ar
     9     5    30    1
    10     6     7   ar
    11     6    31    1
    12     7    16   ar
    13     7     8    1
    14     8     9    1
    15     8    32    1
    16     9    10    1
    17     9    15    2
    18    10    14    1
    19    10    11    2
    20    11    12    1
    21    11    33    1
    22    12    13    2
    23    12    34    1
    24    13    14    1
    25    13    35    1
    26    15    16    1
    27    16    17   ar
    28    17    36    1
    29    18    28    1
    30    18    19    2
    31    19    20    1
    32    19    37    1
    33    20    21    1
    34    20    27    1
    35    21    26   ar
    36    21    22   ar
    37    22    23   ar
    38    22    38    1
    39    23    24   ar
    40    23    39    1
    41    24    25   ar
    42    24    40    1
    43    25    26   ar
    44    25    41    1
    45    26    42    1
    46    27    28    2
@<TRIPOS>SUBSTRUCTURE
     1 ZINC000054627026        1 TEMP              0 ****  ****    0 ROOT


##########                                Name:    ZINC001231746020
##########                DOCK_Rotatable_Bonds:                   3
##########                         Heavy_Atoms:                  19
##########                    Molecular_Weight:             348.667
##########                DOCK_Rotatable_Bonds:                   3
##########                       Formal_Charge:          -0.0399997
##########                     HBond_Acceptors:                   4
##########                        HBond_Donors:                   2
##########                         Heavy_Atoms:                  19
##########                          Grid_Score:          -25.944242
##########                     Grid_vdw_energy:          -25.103119
##########                      Grid_es_energy:           -0.841123
##########           Internal_energy_repulsive:           10.262158

@<TRIPOS>MOLECULE
ZINC001231746020
 38 39 1 0 0
SMALL
USER_CHARGES


@<TRIPOS>ATOM
      1 C1         -6.0228    0.1770   51.6114 C.3     1  ZINC001231746020   -0.1500
      2 C2         -7.1544    0.0858   52.6371 C.3     1  ZINC001231746020   -0.0900
      3 H3         -6.7834   -0.3811   53.5496 H       1  ZINC001231746020    0.0800
      4 C4         -7.6651    1.4671   52.9489 C.3     1  ZINC001231746020   -0.1400
      5 C5         -8.1838    1.6192   54.3902 C.3     1  ZINC001231746020   -0.0100
      6 N6         -9.0000    0.4746   54.8485 N.4     1  ZINC001231746020   -0.3800
      7 H7         -8.3865   -0.2832   55.1080 H       1  ZINC001231746020    0.4100
      8 C8         -9.7785    0.8834   56.0252 C.3     1  ZINC001231746020    0.0700
      9 C9         -9.9543   -0.2966   56.9459 C.ar    1  ZINC001231746020   -0.3100
     10 C10        -9.0166   -0.5499   57.9297 C.ar    1  ZINC001231746020   -0.0300
     11 C11        -9.1757   -1.6317   58.7761 C.ar    1  ZINC001231746020   -0.1600
     12 Cl12       -7.9977   -1.9492   60.0111 Cl      1  ZINC001231746020   -0.0800
     13 C13       -10.2778   -2.4636   58.6370 C.ar    1  ZINC001231746020    0.3100
     14 O14       -10.4370   -3.5276   59.4681 O.3     1  ZINC001231746020   -0.6300
     15 C15       -11.2172   -2.2070   57.6482 C.ar    1  ZINC001231746020   -0.2100
     16 Br16      -12.7206   -3.3378   57.4548 Br      1  ZINC001231746020   -0.0600
     17 C17       -11.0562   -1.1207   56.8089 C.ar    1  ZINC001231746020   -0.0200
     18 C18        -9.9051    0.0139   53.8237 C.3     1  ZINC001231746020   -0.0200
     19 C19        -9.2397   -1.1705   53.1042 C.3     1  ZINC001231746020   -0.1800
     20 C20        -8.3162   -0.7574   52.0547 C.3     1  ZINC001231746020    0.1000
     21 H21        -7.9070   -1.6433   51.5690 H       1  ZINC001231746020    0.0700
     22 O22        -9.0231    0.0222   51.0879 O.3     1  ZINC001231746020   -0.5600
     23 H23        -5.2112    0.7801   52.0183 H       1  ZINC001231746020    0.0600
     24 H24        -6.3968    0.6399   50.6981 H       1  ZINC001231746020    0.0700
     25 H25        -5.6544   -0.8240   51.3868 H       1  ZINC001231746020    0.0600
     26 H26        -6.8572    2.1817   52.7915 H       1  ZINC001231746020    0.1000
     27 H27        -8.4772    1.7026   52.2611 H       1  ZINC001231746020    0.1000
     28 H28        -7.3297    1.7283   55.0586 H       1  ZINC001231746020    0.1200
     29 H29        -8.7878    2.5245   54.4499 H       1  ZINC001231746020    0.1200
     30 H30        -9.2511    1.6793   56.5513 H       1  ZINC001231746020    0.1200
     31 H31       -10.7563    1.2444   55.7065 H       1  ZINC001231746020    0.1200
     32 H32        -8.1592    0.0979   58.0373 H       1  ZINC001231746020    0.1100
     33 H33       -11.7897   -0.9176   56.0425 H       1  ZINC001231746020    0.1100
     34 H34       -10.8421   -0.3093   54.2772 H       1  ZINC001231746020    0.1400
     35 H35       -10.0974    0.8174   53.1128 H       1  ZINC001231746020    0.1300
     36 H36        -8.6937   -1.7641   53.8376 H       1  ZINC001231746020    0.0900
     37 H37       -10.0169   -1.7923   52.6599 H       1  ZINC001231746020    0.1100
     38 H38        -9.7707   -0.4378   50.6824 H       1  ZINC001231746020    0.3900
@<TRIPOS>BOND
     1     1     2    1
     2     1    23    1
     3     1    24    1
     4     1    25    1
     5     2     3    1
     6     2    20    1
     7     2     4    1
     8     4     5    1
     9     4    26    1
    10     4    27    1
    11     5     6    1
    12     5    28    1
    13     5    29    1
    14     6     7    1
    15     6     8    1
    16     6    18    1
    17     8     9    1
    18     8    30    1
    19     8    31    1
    20     9    17   ar
    21     9    10   ar
    22    10    11   ar
    23    10    32    1
    24    11    12    1
    25    11    13   ar
    26    13    14    1
    27    13    15   ar
    28    15    16    1
    29    15    17   ar
    30    17    33    1
    31    18    19    1
    32    18    34    1
    33    18    35    1
    34    19    20    1
    35    19    36    1
    36    19    37    1
    37    20    21    1
    38    20    22    1
    39    22    38    1
@<TRIPOS>SUBSTRUCTURE
     1 ZINC001231746020        1 TEMP              0 ****  ****    0 ROOT


##########                                Name:    ZINC000430767928
##########                DOCK_Rotatable_Bonds:                   4
##########                         Heavy_Atoms:                  25
##########                    Molecular_Weight:             358.505
##########                DOCK_Rotatable_Bonds:                   4
##########                       Formal_Charge:          -0.0100002
##########                     HBond_Acceptors:                   5
##########                        HBond_Donors:                   0
##########                         Heavy_Atoms:                  25
##########                          Grid_Score:          -25.942181
##########                     Grid_vdw_energy:          -25.825626
##########                      Grid_es_energy:           -0.116555
##########           Internal_energy_repulsive:           14.077677

@<TRIPOS>MOLECULE
ZINC000430767928
 51 55 1 0 0
SMALL
USER_CHARGES


@<TRIPOS>ATOM
      1 O1        -10.4335   -2.1510   54.1329 O.2     1  ZINC000430767928   -0.4600
      2 C2        -10.2026   -1.5157   55.1392 C.2     1  ZINC000430767928    0.5300
      3 C3        -10.2411   -2.0113   56.5647 C.3     1  ZINC000430767928    0.0400
      4 H4         -9.4144   -2.6810   56.8019 H       1  ZINC000430767928    0.1400
      5 C5        -11.6175   -2.6108   56.9192 C.3     1  ZINC000430767928   -0.1100
      6 C6        -11.7446   -2.2807   58.4284 C.3     1  ZINC000430767928   -0.1000
      7 H7        -11.4389   -3.1361   59.0307 H       1  ZINC000430767928    0.1000
      8 C8        -13.1820   -1.8797   58.7662 C.3     1  ZINC000430767928   -0.0800
      9 C9        -14.1482   -2.9267   58.2083 C.3     1  ZINC000430767928   -0.1100
     10 C10       -15.5855   -2.5257   58.5461 C.3     1  ZINC000430767928   -0.1200
     11 C11       -15.7476   -2.4404   60.0651 C.3     1  ZINC000430767928   -0.1200
     12 C12       -14.7814   -1.3934   60.6230 C.3     1  ZINC000430767928   -0.1200
     13 C13       -13.3441   -1.7944   60.2852 C.3     1  ZINC000430767928   -0.1200
     14 C14       -10.7853   -1.0925   58.6567 C.3     1  ZINC000430767928    0.1600
     15 N15       -10.2117   -0.7432   57.3463 N.am    1  ZINC000430767928   -0.6400
     16 C16        -9.7286    0.1816   56.5105 C.2     1  ZINC000430767928    0.7400
     17 O17        -9.2597    1.2454   56.8651 O.2     1  ZINC000430767928   -0.5100
     18 N18        -9.8500   -0.2137   55.2243 N.am    1  ZINC000430767928   -0.5800
     19 C19        -9.6347    0.6592   54.0676 C.3     1  ZINC000430767928    0.2600
     20 H20        -9.1793    1.5932   54.3970 H       1  ZINC000430767928    0.1200
     21 C21        -8.7208   -0.0258   53.0845 C.2     1  ZINC000430767928   -0.2100
     22 C22        -7.4376   -0.3179   53.3021 C.2     1  ZINC000430767928   -0.1200
     23 C23        -6.7970   -0.9506   52.2507 C.2     1  ZINC000430767928   -0.1400
     24 C24        -7.5600   -1.1721   51.1792 C.2     1  ZINC000430767928   -0.2300
     25 S25        -9.1851   -0.5691   51.4773 S.3     1  ZINC000430767928    0.1700
     26 C26       -10.9768    0.9554   53.3954 C.3     1  ZINC000430767928   -0.1700
     27 C27       -11.6170    2.3185   53.6663 C.3     1  ZINC000430767928   -0.1700
     28 C28       -10.9975    2.0223   52.2989 C.3     1  ZINC000430767928   -0.1600
     29 H29       -12.4098   -2.1265   56.3484 H       1  ZINC000430767928    0.0800
     30 H30       -11.6243   -3.6886   56.7563 H       1  ZINC000430767928    0.1000
     31 H31       -13.4023   -0.9089   58.3223 H       1  ZINC000430767928    0.0700
     32 H32       -14.0327   -2.9875   57.1261 H       1  ZINC000430767928    0.0600
     33 H33       -13.9279   -3.8975   58.6522 H       1  ZINC000430767928    0.0700
     34 H34       -15.8057   -1.5549   58.1021 H       1  ZINC000430767928    0.0600
     35 H35       -16.2738   -3.2716   58.1486 H       1  ZINC000430767928    0.0600
     36 H36       -16.7715   -2.1547   60.3058 H       1  ZINC000430767928    0.0600
     37 H37       -15.5273   -3.4111   60.5091 H       1  ZINC000430767928    0.0600
     38 H38       -15.0016   -0.4225   60.1791 H       1  ZINC000430767928    0.0600
     39 H39       -14.8968   -1.3326   61.7052 H       1  ZINC000430767928    0.0600
     40 H40       -13.1238   -2.7652   60.7292 H       1  ZINC000430767928    0.0700
     41 H41       -12.6558   -1.0485   60.6827 H       1  ZINC000430767928    0.0600
     42 H42       -11.3326   -0.2447   59.0688 H       1  ZINC000430767928    0.0900
     43 H43        -9.9837   -1.3851   59.3349 H       1  ZINC000430767928    0.0800
     44 H44        -6.9364   -0.0789   54.2284 H       1  ZINC000430767928    0.1400
     45 H45        -5.7581   -1.2423   52.2945 H       1  ZINC000430767928    0.1400
     46 H46        -7.2310   -1.6515   50.2691 H       1  ZINC000430767928    0.1600
     47 H47       -11.6429    0.1005   53.2785 H       1  ZINC000430767928    0.1200
     48 H48       -12.7044    2.3605   53.7276 H       1  ZINC000430767928    0.1000
     49 H49       -11.0819    3.0041   54.3232 H       1  ZINC000430767928    0.1000
     50 H50       -10.0549    2.5131   52.0564 H       1  ZINC000430767928    0.1000
     51 H51       -11.6775    1.8695   51.4608 H       1  ZINC000430767928    0.1000
@<TRIPOS>BOND
     1     1     2    2
     2     2    18   am
     3     2     3    1
     4     3     4    1
     5     3    15    1
     6     3     5    1
     7     5     6    1
     8     5    29    1
     9     5    30    1
    10     6     7    1
    11     6     8    1
    12     6    14    1
    13     8    13    1
    14     8     9    1
    15     8    31    1
    16     9    10    1
    17     9    32    1
    18     9    33    1
    19    10    11    1
    20    10    34    1
    21    10    35    1
    22    11    12    1
    23    11    36    1
    24    11    37    1
    25    12    13    1
    26    12    38    1
    27    12    39    1
    28    13    40    1
    29    13    41    1
    30    14    15    1
    31    14    42    1
    32    14    43    1
    33    15    16   am
    34    16    17    2
    35    16    18   am
    36    18    19    1
    37    19    20    1
    38    19    21    1
    39    19    26    1
    40    21    25    1
    41    21    22    2
    42    22    23    1
    43    22    44    1
    44    23    24    2
    45    23    45    1
    46    24    25    1
    47    24    46    1
    48    26    28    1
    49    26    27    1
    50    26    47    1
    51    27    28    1
    52    27    48    1
    53    27    49    1
    54    28    50    1
    55    28    51    1
@<TRIPOS>SUBSTRUCTURE
     1 ZINC000430767928        1 TEMP              0 ****  ****    0 ROOT


##########                                Name:    ZINC000899027326
##########                DOCK_Rotatable_Bonds:                   5
##########                         Heavy_Atoms:                  22
##########                    Molecular_Weight:             346.169
##########                DOCK_Rotatable_Bonds:                   5
##########                       Formal_Charge:           0.0300005
##########                     HBond_Acceptors:                   9
##########                        HBond_Donors:                   1
##########                         Heavy_Atoms:                  22
##########                          Grid_Score:          -25.940899
##########                     Grid_vdw_energy:          -24.639717
##########                      Grid_es_energy:           -1.301183
##########           Internal_energy_repulsive:            7.405557

@<TRIPOS>MOLECULE
ZINC000899027326
 35 36 1 0 0
SMALL
USER_CHARGES


@<TRIPOS>ATOM
      1 C1         -6.8092    1.6203   53.0590 C.3     1  ZINC000899027326   -0.1500
      2 C2         -7.1542    0.1429   53.2577 C.3     1  ZINC000899027326    0.1100
      3 H3         -6.2531   -0.4363   53.4595 H       1  ZINC000899027326    0.1400
      4 C4         -8.1582   -0.0239   54.3810 C.2     1  ZINC000899027326    0.5300
      5 O5         -8.0112    0.2794   55.5455 O.2     1  ZINC000899027326   -0.4500
      6 N6         -9.2484   -0.5788   53.8157 N.am    1  ZINC000899027326   -0.3700
      7 N7        -10.4195   -0.9007   54.5141 N.am    1  ZINC000899027326   -0.5000
      8 C8        -10.5129   -2.0755   55.1679 C.2     1  ZINC000899027326    0.5200
      9 O9         -9.5827   -2.8535   55.1528 O.2     1  ZINC000899027326   -0.4800
     10 C10       -11.7733   -2.4224   55.9177 C.3     1  ZINC000899027326    0.0500
     11 O11       -11.7368   -1.8225   57.2142 O.3     1  ZINC000899027326   -0.2700
     12 C12       -12.8575   -1.9303   57.9759 C.ar    1  ZINC000899027326    0.1400
     13 C13       -14.0023   -2.5084   57.4488 C.ar    1  ZINC000899027326   -0.1900
     14 C14       -15.1407   -2.6171   58.2247 C.ar    1  ZINC000899027326   -0.0600
     15 C15       -15.1393   -2.1498   59.5266 C.ar    1  ZINC000899027326   -0.0600
     16 Cl16      -16.5708   -2.2885   60.4989 Cl      1  ZINC000899027326   -0.0500
     17 C17       -13.9982   -1.5724   60.0554 C.ar    1  ZINC000899027326   -0.0600
     18 C18       -12.8557   -1.4669   59.2848 C.ar    1  ZINC000899027326   -0.0500
     19 Cl19      -11.4242   -0.7426   59.9481 Cl      1  ZINC000899027326   -0.0300
     20 C20        -9.0746   -0.7837   52.5050 C.2     1  ZINC000899027326    0.7000
     21 O21        -9.9183   -1.2733   51.7800 O.2     1  ZINC000899027326   -0.5200
     22 N22        -7.8582   -0.3881   52.0777 N.am    1  ZINC000899027326   -0.6200
     23 C23        -7.3426   -0.4681   50.7087 C.3     1  ZINC000899027326    0.1200
     24 H24        -7.7226    2.1846   52.8709 H       1  ZINC000899027326    0.0700
     25 H25        -6.3234    2.0037   53.9562 H       1  ZINC000899027326    0.0900
     26 H26        -6.1358    1.7249   52.2083 H       1  ZINC000899027326    0.0900
     27 H27       -11.1631   -0.2779   54.5272 H       1  ZINC000899027326    0.4300
     28 H28       -12.6374   -2.0485   55.3686 H       1  ZINC000899027326    0.1100
     29 H29       -11.8487   -3.5050   56.0204 H       1  ZINC000899027326    0.1100
     30 H30       -14.0043   -2.8732   56.4323 H       1  ZINC000899027326    0.1500
     31 H31       -16.0325   -3.0670   57.8139 H       1  ZINC000899027326    0.1500
     32 H32       -13.9990   -1.2082   61.0722 H       1  ZINC000899027326    0.1500
     33 H33        -8.1011   -0.9060   50.0598 H       1  ZINC000899027326    0.0900
     34 H34        -7.0953    0.5326   50.3545 H       1  ZINC000899027326    0.0700
     35 H35        -6.4479   -1.0905   50.6932 H       1  ZINC000899027326    0.0700
@<TRIPOS>BOND
     1     1     2    1
     2     1    24    1
     3     1    25    1
     4     1    26    1
     5     2     3    1
     6     2    22    1
     7     2     4    1
     8     4     5    2
     9     4     6   am
    10     6     7    1
    11     6    20   am
    12     7     8   am
    13     7    27    1
    14     8     9    2
    15     8    10    1
    16    10    11    1
    17    10    28    1
    18    10    29    1
    19    11    12    1
    20    12    18   ar
    21    12    13   ar
    22    13    14   ar
    23    13    30    1
    24    14    15   ar
    25    14    31    1
    26    15    16    1
    27    15    17   ar
    28    17    18   ar
    29    17    32    1
    30    18    19    1
    31    20    21    2
    32    20    22   am
    33    22    23    1
    34    23    33    1
    35    23    34    1
    36    23    35    1
@<TRIPOS>SUBSTRUCTURE
     1 ZINC000899027326        1 TEMP              0 ****  ****    0 ROOT


##########                                Name:    ZINC000560467340
##########                DOCK_Rotatable_Bonds:                   7
##########                         Heavy_Atoms:                  24
##########                    Molecular_Weight:             369.481
##########                DOCK_Rotatable_Bonds:                   7
##########                       Formal_Charge:          -0.0199997
##########                     HBond_Acceptors:                   7
##########                        HBond_Donors:                   2
##########                         Heavy_Atoms:                  24
##########                          Grid_Score:          -25.913834
##########                     Grid_vdw_energy:          -25.661459
##########                      Grid_es_energy:           -0.252375
##########           Internal_energy_repulsive:           21.204187

@<TRIPOS>MOLECULE
ZINC000560467340
 44 46 1 0 0
SMALL
USER_CHARGES


@<TRIPOS>ATOM
      1 O1         -5.4141   -1.2183   51.8553 O.2     1  ZINC000560467340   -0.9600
      2 S2         -6.3487   -0.1587   51.7035 S.o2    1  ZINC000560467340    2.7100
      3 O3         -7.2298   -0.0524   50.5938 O.2     1  ZINC000560467340   -0.9500
      4 N4         -7.3021   -0.1785   53.0574 N.am    1  ZINC000560467340   -1.0900
      5 C5         -8.2838    0.8863   53.2777 C.3     1  ZINC000560467340    0.1400
      6 C6         -9.6191    0.2698   53.6995 C.3     1  ZINC000560467340   -0.0500
      7 C7         -9.4145   -0.6466   54.9074 C.3     1  ZINC000560467340   -0.0700
      8 C8         -9.1232    0.1883   56.1278 C.ar    1  ZINC000560467340   -0.0900
      9 C9        -10.1272    0.4501   57.0413 C.ar    1  ZINC000560467340   -0.0900
     10 C10        -9.8612    1.2156   58.1608 C.ar    1  ZINC000560467340   -0.1500
     11 C11        -8.5884    1.7202   58.3673 C.ar    1  ZINC000560467340    0.1000
     12 F12        -8.3272    2.4682   59.4615 F       1  ZINC000560467340   -0.1400
     13 C13        -7.5836    1.4570   57.4519 C.ar    1  ZINC000560467340   -0.1500
     14 C14        -7.8507    0.6871   56.3356 C.ar    1  ZINC000560467340   -0.0900
     15 C15       -10.2269   -0.5274   52.5270 C.3     1  ZINC000560467340   -0.1300
     16 C16       -11.7496   -0.2673   52.6397 C.3     1  ZINC000560467340   -0.1200
     17 C17       -11.8115    1.2192   53.0705 C.3     1  ZINC000560467340   -0.1600
     18 C18       -10.6266    1.3803   54.0450 C.3     1  ZINC000560467340    0.1100
     19 H19       -10.9704    1.2658   55.0730 H       1  ZINC000560467340    0.0600
     20 O20       -10.0212    2.6631   53.8718 O.3     1  ZINC000560467340   -0.5500
     21 C21        -5.4167    1.3362   51.7439 C.2     1  ZINC000560467340   -0.6900
     22 C22        -5.2665    2.0582   52.8553 C.2     1  ZINC000560467340   -0.1000
     23 S23        -4.2795    3.4727   52.5110 S.3     1  ZINC000560467340    0.1500
     24 C24        -4.1218    2.9897   50.8271 C.2     1  ZINC000560467340   -0.2200
     25 C25        -4.7801    1.8472   50.6260 C.2     1  ZINC000560467340   -0.0700
     26 H26        -7.2106   -0.8952   53.7046 H       1  ZINC000560467340    0.4200
     27 H27        -7.9271    1.5526   54.0631 H       1  ZINC000560467340    0.0600
     28 H28        -8.4198    1.4516   52.3557 H       1  ZINC000560467340    0.0800
     29 H29       -10.3177   -1.2332   55.0757 H       1  ZINC000560467340    0.0800
     30 H30        -8.5761   -1.3167   54.7173 H       1  ZINC000560467340    0.0800
     31 H31       -11.1198    0.0564   56.8800 H       1  ZINC000560467340    0.1300
     32 H32       -10.6459    1.4206   58.8740 H       1  ZINC000560467340    0.1400
     33 H33        -6.5905    1.8503   57.6117 H       1  ZINC000560467340    0.1400
     34 H34        -7.0669    0.4815   55.6215 H       1  ZINC000560467340    0.1300
     35 H35        -9.8460   -0.1564   51.5754 H       1  ZINC000560467340    0.0700
     36 H36       -10.0123   -1.5904   52.6365 H       1  ZINC000560467340    0.0800
     37 H37       -12.2385   -0.4110   51.6762 H       1  ZINC000560467340    0.0700
     38 H38       -12.1958   -0.9086   53.3998 H       1  ZINC000560467340    0.0700
     39 H39       -11.6865    1.8721   52.2067 H       1  ZINC000560467340    0.0800
     40 H40       -12.7534    1.4308   53.5768 H       1  ZINC000560467340    0.0700
     41 H41        -9.3519    2.8752   54.5367 H       1  ZINC000560467340    0.3800
     42 H42        -5.6869    1.8121   53.8192 H       1  ZINC000560467340    0.1800
     43 H43        -3.5720    3.5326   50.0726 H       1  ZINC000560467340    0.1700
     44 H44        -4.8201    1.3617   49.6620 H       1  ZINC000560467340    0.1500
@<TRIPOS>BOND
     1     1     2    2
     2     2     3    2
     3     2     4   am
     4     2    21    1
     5     4     5    1
     6     4    26    1
     7     5     6    1
     8     5    27    1
     9     5    28    1
    10     6    18    1
    11     6     7    1
    12     6    15    1
    13     7     8    1
    14     7    29    1
    15     7    30    1
    16     8    14   ar
    17     8     9   ar
    18     9    10   ar
    19     9    31    1
    20    10    11   ar
    21    10    32    1
    22    11    12    1
    23    11    13   ar
    24    13    14   ar
    25    13    33    1
    26    14    34    1
    27    15    16    1
    28    15    35    1
    29    15    36    1
    30    16    17    1
    31    16    37    1
    32    16    38    1
    33    17    18    1
    34    17    39    1
    35    17    40    1
    36    18    19    1
    37    18    20    1
    38    20    41    1
    39    21    25    1
    40    21    22    2
    41    22    23    1
    42    22    42    1
    43    23    24    1
    44    24    25    2
    45    24    43    1
    46    25    44    1
@<TRIPOS>SUBSTRUCTURE
     1 ZINC000560467340        1 TEMP              0 ****  ****    0 ROOT


##########                                Name:    ZINC000482910431
##########                DOCK_Rotatable_Bonds:                   7
##########                         Heavy_Atoms:                  29
##########                    Molecular_Weight:             414.867
##########                DOCK_Rotatable_Bonds:                   7
##########                       Formal_Charge:          -0.0300001
##########                     HBond_Acceptors:                   8
##########                        HBond_Donors:                   2
##########                         Heavy_Atoms:                  29
##########                          Grid_Score:          -25.902647
##########                     Grid_vdw_energy:          -27.014763
##########                      Grid_es_energy:            1.112116
##########           Internal_energy_repulsive:           16.743923

@<TRIPOS>MOLECULE
ZINC000482910431
 49 51 1 0 0
SMALL
USER_CHARGES


@<TRIPOS>ATOM
      1 C1         -3.1272    2.3172   49.0622 C.3     1  ZINC000482910431   -0.1500
      2 C2         -3.1500    2.9881   50.4370 C.3     1  ZINC000482910431    0.0800
      3 C3         -1.8567    2.6604   51.1860 C.3     1  ZINC000482910431   -0.1400
      4 C4         -3.2642    4.4461   50.2698 C.1     1  ZINC000482910431    0.2100
      5 N5         -3.3524    5.5713   50.1407 N.1     1  ZINC000482910431   -0.4300
      6 C6         -4.3294    2.4791   51.2249 C.ar    1  ZINC000482910431   -0.1000
      7 C7         -4.7966    1.1946   51.0152 C.ar    1  ZINC000482910431   -0.0900
      8 C8         -5.8771    0.7248   51.7360 C.ar    1  ZINC000482910431   -0.1200
      9 C9         -6.4943    1.5439   52.6722 C.ar    1  ZINC000482910431    0.1700
     10 N10        -7.5890    1.0708   53.4045 N.am    1  ZINC000482910431   -0.6800
     11 C11        -7.5718    1.1223   54.7511 C.2     1  ZINC000482910431    0.7100
     12 O12        -6.6052    1.5796   55.3297 O.2     1  ZINC000482910431   -0.5500
     13 N13        -8.6261    0.6666   55.4564 N.am    1  ZINC000482910431   -0.7300
     14 C14        -8.6067    0.7209   56.9203 C.3     1  ZINC000482910431    0.1400
     15 H15        -7.5919    0.5815   57.2928 H       1  ZINC000482910431    0.1400
     16 C16        -9.1869    2.0644   57.4197 C.3     1  ZINC000482910431   -0.1400
     17 C17        -9.9402    1.6272   58.6956 C.3     1  ZINC000482910431    0.0900
     18 N18       -10.2729    0.2129   58.4886 N.am    1  ZINC000482910431   -0.5600
     19 C19       -11.2351   -0.4880   59.2249 C.ar    1  ZINC000482910431    0.2000
     20 C20       -10.8402   -1.3864   60.2073 C.ar    1  ZINC000482910431   -0.1600
     21 C21       -11.7909   -2.0776   60.9333 C.ar    1  ZINC000482910431   -0.0500
     22 C22       -13.1361   -1.8759   60.6831 C.ar    1  ZINC000482910431   -0.1000
     23 Cl23      -14.3279   -2.7462   61.5975 Cl      1  ZINC000482910431   -0.0500
     24 C24       -13.5341   -0.9794   59.7036 C.ar    1  ZINC000482910431    0.1400
     25 F25       -14.8487   -0.7835   59.4611 F       1  ZINC000482910431   -0.1200
     26 C26       -12.5858   -0.2816   58.9780 C.ar    1  ZINC000482910431   -0.1900
     27 C27        -9.5323   -0.3253   57.5012 C.2     1  ZINC000482910431    0.5000
     28 O28        -9.6012   -1.4781   57.1305 O.2     1  ZINC000482910431   -0.4800
     29 C29        -6.0228    2.8334   52.8804 C.ar    1  ZINC000482910431   -0.1400
     30 C30        -4.9387    3.2954   52.1602 C.ar    1  ZINC000482910431   -0.0900
     31 H31        -3.0426    1.2376   49.1861 H       1  ZINC000482910431    0.0800
     32 H32        -4.0486    2.5507   48.5287 H       1  ZINC000482910431    0.0700
     33 H33        -2.2741    2.6855   48.4923 H       1  ZINC000482910431    0.0700
     34 H34        -1.0035    3.0287   50.6161 H       1  ZINC000482910431    0.0700
     35 H35        -1.8729    3.1384   52.1654 H       1  ZINC000482910431    0.0700
     36 H36        -1.7721    1.5808   51.3098 H       1  ZINC000482910431    0.0800
     37 H37        -4.3163    0.5580   50.2868 H       1  ZINC000482910431    0.1400
     38 H38        -6.2416   -0.2784   51.5715 H       1  ZINC000482910431    0.1400
     39 H39        -8.3601    0.7059   52.9428 H       1  ZINC000482910431    0.4100
     40 H40        -9.3977    0.3028   54.9948 H       1  ZINC000482910431    0.4000
     41 H41        -8.3900    2.7684   57.6592 H       1  ZINC000482910431    0.1100
     42 H42        -9.8736    2.4890   56.6875 H       1  ZINC000482910431    0.1000
     43 H43        -9.2987    1.7398   59.5696 H       1  ZINC000482910431    0.0900
     44 H44       -10.8502    2.2150   58.8164 H       1  ZINC000482910431    0.1000
     45 H45        -9.7901   -1.5452   60.4034 H       1  ZINC000482910431    0.1700
     46 H46       -11.4832   -2.7766   61.6970 H       1  ZINC000482910431    0.1500
     47 H47       -12.8953    0.4173   58.2150 H       1  ZINC000482910431    0.1500
     48 H48        -6.5008    3.4729   53.6078 H       1  ZINC000482910431    0.1300
     49 H49        -4.5713    4.2980   52.3219 H       1  ZINC000482910431    0.1300
@<TRIPOS>BOND
     1     1     2    1
     2     1    31    1
     3     1    32    1
     4     1    33    1
     5     2     3    1
     6     2     4    1
     7     2     6    1
     8     3    34    1
     9     3    35    1
    10     3    36    1
    11     4     5    3
    12     6    30   ar
    13     6     7   ar
    14     7     8   ar
    15     7    37    1
    16     8     9   ar
    17     8    38    1
    18     9    10    1
    19     9    29   ar
    20    10    11   am
    21    10    39    1
    22    11    12    2
    23    11    13   am
    24    13    14    1
    25    13    40    1
    26    14    15    1
    27    14    27    1
    28    14    16    1
    29    16    17    1
    30    16    41    1
    31    16    42    1
    32    17    18    1
    33    17    43    1
    34    17    44    1
    35    18    19    1
    36    18    27   am
    37    19    26   ar
    38    19    20   ar
    39    20    21   ar
    40    20    45    1
    41    21    22   ar
    42    21    46    1
    43    22    23    1
    44    22    24   ar
    45    24    25    1
    46    24    26   ar
    47    26    47    1
    48    27    28    2
    49    29    30   ar
    50    29    48    1
    51    30    49    1
@<TRIPOS>SUBSTRUCTURE
     1 ZINC000482910431        1 TEMP              0 ****  ****    0 ROOT


##########                                Name:    ZINC000939075213
##########                DOCK_Rotatable_Bonds:                   7
##########                         Heavy_Atoms:                  24
##########                    Molecular_Weight:             327.426
##########                DOCK_Rotatable_Bonds:                   7
##########                       Formal_Charge:          -0.0200002
##########                     HBond_Acceptors:                   5
##########                        HBond_Donors:                   2
##########                         Heavy_Atoms:                  24
##########                          Grid_Score:          -25.878239
##########                     Grid_vdw_energy:          -23.119501
##########                      Grid_es_energy:           -2.758738
##########           Internal_energy_repulsive:            9.599368

@<TRIPOS>MOLECULE
ZINC000939075213
 49 51 1 0 0
SMALL
USER_CHARGES


@<TRIPOS>ATOM
      1 C1         -3.5730    3.3384   49.7794 C.3     1  ZINC000939075213   -0.1400
      2 C2         -2.8727    2.6874   50.9738 C.3     1  ZINC000939075213   -0.1100
      3 H3         -3.1129    1.6258   51.0339 H       1  ZINC000939075213    0.0900
      4 C4         -3.2343    3.4140   52.2932 C.3     1  ZINC000939075213    0.1100
      5 N5         -2.1043    3.1372   53.1985 N.am    1  ZINC000939075213   -0.6200
      6 C6         -2.1542    3.1549   54.5453 C.2     1  ZINC000939075213    0.5600
      7 O7         -3.1991    3.4181   55.1125 O.2     1  ZINC000939075213   -0.5400
      8 C8         -0.9921    2.8677   55.3002 C.2     1  ZINC000939075213   -0.2600
      9 C9         -0.9958    3.0459   56.6446 C.2     1  ZINC000939075213    0.0400
     10 C10         0.1674    2.7585   57.4006 C.2     1  ZINC000939075213    0.0000
     11 C11         1.3647    2.2742   56.9069 C.2     1  ZINC000939075213   -0.1500
     12 C12         2.2323    2.1381   57.9946 C.2     1  ZINC000939075213   -0.2200
     13 C13         1.5687    2.5314   59.1086 C.2     1  ZINC000939075213    0.0200
     14 N14         0.3142    2.9161   58.7606 N.pl3   1  ZINC000939075213   -0.5000
     15 C15        -0.9141    2.8376   52.3890 C.3     1  ZINC000939075213    0.0900
     16 C16        -1.3383    2.9074   50.9064 C.3     1  ZINC000939075213    0.1400
     17 H17        -1.1078    3.8859   50.4850 H       1  ZINC000939075213    0.1100
     18 N18        -0.6909    1.8459   50.1315 N.am    1  ZINC000939075213   -0.7200
     19 C19        -0.2027    2.1102   48.9035 C.2     1  ZINC000939075213    0.5300
     20 O20        -0.3006    3.2263   48.4391 O.2     1  ZINC000939075213   -0.5300
     21 C21         0.4648    1.0187   48.1071 C.3     1  ZINC000939075213   -0.0600
     22 C22         1.8222    1.4947   47.5858 C.3     1  ZINC000939075213   -0.1300
     23 C23         0.6287   -0.2238   48.9512 C.2     1  ZINC000939075213   -0.1700
     24 C24         0.2860   -1.2929   48.2854 C.2     1  ZINC000939075213   -0.1400
     25 C25        -0.1636   -0.9417   46.8863 C.3     1  ZINC000939075213   -0.1100
     26 C26        -0.4394    0.5792   46.9322 C.3     1  ZINC000939075213   -0.1100
     27 H27        -3.2391    2.8613   48.8580 H       1  ZINC000939075213    0.0600
     28 H28        -4.6517    3.2178   49.8807 H       1  ZINC000939075213    0.0700
     29 H29        -3.3275    4.3999   49.7485 H       1  ZINC000939075213    0.0600
     30 H30        -3.3294    4.4863   52.1220 H       1  ZINC000939075213    0.0700
     31 H31        -4.1591    3.0116   52.7066 H       1  ZINC000939075213    0.0800
     32 H32        -0.1025    2.5066   54.8058 H       1  ZINC000939075213    0.1300
     33 H33        -1.8856    3.4070   57.1390 H       1  ZINC000939075213    0.1500
     34 H34         1.5875    2.0439   55.8755 H       1  ZINC000939075213    0.1400
     35 H35         3.2512    1.7823   57.9541 H       1  ZINC000939075213    0.1400
     36 H36         1.9733    2.5407   60.1099 H       1  ZINC000939075213    0.1600
     37 H37        -0.3670    3.2422   59.3693 H       1  ZINC000939075213    0.4100
     38 H38        -0.1358    3.5745   52.5875 H       1  ZINC000939075213    0.0800
     39 H39        -0.5490    1.8375   52.6227 H       1  ZINC000939075213    0.0700
     40 H40        -0.6136    0.9530   50.5024 H       1  ZINC000939075213    0.4000
     41 H41         2.4568    1.7741   48.4269 H       1  ZINC000939075213    0.0600
     42 H42         2.2975    0.6913   47.0232 H       1  ZINC000939075213    0.0700
     43 H43         1.6794    2.3582   46.9360 H       1  ZINC000939075213    0.0600
     44 H44         0.9833   -0.2268   49.9714 H       1  ZINC000939075213    0.1300
     45 H45         0.3198   -2.2967   48.6824 H       1  ZINC000939075213    0.1300
     46 H46         0.6251   -1.1631   46.1672 H       1  ZINC000939075213    0.0800
     47 H47        -1.0736   -1.4851   46.6323 H       1  ZINC000939075213    0.0800
     48 H48        -1.4885    0.7802   47.1493 H       1  ZINC000939075213    0.0900
     49 H49        -0.1348    1.0602   46.0027 H       1  ZINC000939075213    0.0800
@<TRIPOS>BOND
     1     1     2    1
     2     1    27    1
     3     1    28    1
     4     1    29    1
     5     2     3    1
     6     2    16    1
     7     2     4    1
     8     4     5    1
     9     4    30    1
    10     4    31    1
    11     5     6   am
    12     5    15    1
    13     6     7    2
    14     6     8    1
    15     8     9    2
    16     8    32    1
    17     9    10    1
    18     9    33    1
    19    10    14    1
    20    10    11    2
    21    11    12    1
    22    11    34    1
    23    12    13    2
    24    12    35    1
    25    13    14    1
    26    13    36    1
    27    14    37    1
    28    15    16    1
    29    15    38    1
    30    15    39    1
    31    16    17    1
    32    16    18    1
    33    18    19   am
    34    18    40    1
    35    19    20    2
    36    19    21    1
    37    21    26    1
    38    21    22    1
    39    21    23    1
    40    22    41    1
    41    22    42    1
    42    22    43    1
    43    23    24    2
    44    23    44    1
    45    24    25    1
    46    24    45    1
    47    25    26    1
    48    25    46    1
    49    25    47    1
    50    26    48    1
    51    26    49    1
@<TRIPOS>SUBSTRUCTURE
     1 ZINC000939075213        1 TEMP              0 ****  ****    0 ROOT


##########                                Name:    ZINC000277311370
##########                DOCK_Rotatable_Bonds:                   5
##########                         Heavy_Atoms:                  17
##########                    Molecular_Weight:             361.036
##########                DOCK_Rotatable_Bonds:                   5
##########                       Formal_Charge:        -7.45058e-08
##########                     HBond_Acceptors:                   4
##########                        HBond_Donors:                   1
##########                         Heavy_Atoms:                  17
##########                          Grid_Score:          -25.857475
##########                     Grid_vdw_energy:          -26.062490
##########                      Grid_es_energy:            0.205015
##########           Internal_energy_repulsive:            6.958442

@<TRIPOS>MOLECULE
ZINC000277311370
 28 28 1 0 0
SMALL
USER_CHARGES


@<TRIPOS>ATOM
      1 C1         -2.0092    3.5140   46.3143 C.3     1  ZINC000277311370   -0.1500
      2 C2         -2.0458    2.0110   46.0304 C.3     1  ZINC000277311370   -0.1000
      3 C3         -0.9473    1.6548   45.0267 C.3     1  ZINC000277311370   -0.1600
      4 C4         -1.8166    1.2404   47.3321 C.3     1  ZINC000277311370    0.2500
      5 H5         -0.8762    1.5587   47.7821 H       1  ZINC000277311370    0.1400
      6 C6         -1.7598   -0.2022   47.0450 C.1     1  ZINC000277311370    0.1900
      7 N7         -1.7159   -1.3154   46.8233 N.1     1  ZINC000277311370   -0.4100
      8 N8         -2.9178    1.5107   48.2598 N.am    1  ZINC000277311370   -0.7000
      9 C9         -2.7132    1.4326   49.5897 C.2     1  ZINC000277311370    0.5700
     10 O10        -1.6149    1.1395   50.0193 O.2     1  ZINC000277311370   -0.4900
     11 C11        -3.8269    1.7041   50.5275 C.ar    1  ZINC000277311370    0.1100
     12 N12        -4.7619    0.7822   50.7236 N.ar    1  ZINC000277311370   -0.4300
     13 C13        -5.7672    0.9834   51.5484 C.ar    1  ZINC000277311370    0.1300
     14 Br14       -7.0661   -0.3708   51.7830 Br      1  ZINC000277311370    0.0200
     15 C15        -5.8871    2.1750   52.2482 C.ar    1  ZINC000277311370   -0.1100
     16 C16        -4.9334    3.1643   52.0735 C.ar    1  ZINC000277311370   -0.0400
     17 C17        -3.8816    2.9231   51.2013 C.ar    1  ZINC000277311370   -0.0900
     18 Br18       -2.5485    4.2346   50.9205 Br      1  ZINC000277311370    0.0300
     19 H19        -2.1724    4.0631   45.3869 H       1  ZINC000277311370    0.0700
     20 H20        -2.7917    3.7678   47.0294 H       1  ZINC000277311370    0.0700
     21 H21        -1.0374    3.7819   46.7289 H       1  ZINC000277311370    0.0600
     22 H22        -3.0176    1.7431   45.6158 H       1  ZINC000277311370    0.1000
     23 H23         0.0245    1.9227   45.4413 H       1  ZINC000277311370    0.0600
     24 H24        -0.9733    0.5840   44.8245 H       1  ZINC000277311370    0.0600
     25 H25        -1.1105    2.2038   44.0993 H       1  ZINC000277311370    0.0700
     26 H26        -3.7942    1.7459   47.9170 H       1  ZINC000277311370    0.4200
     27 H27        -6.7162    2.3301   52.9227 H       1  ZINC000277311370    0.1600
     28 H28        -5.0047    4.1006   52.6070 H       1  ZINC000277311370    0.1700
@<TRIPOS>BOND
     1     1     2    1
     2     1    19    1
     3     1    20    1
     4     1    21    1
     5     2     3    1
     6     2     4    1
     7     2    22    1
     8     3    23    1
     9     3    24    1
    10     3    25    1
    11     4     5    1
    12     4     6    1
    13     4     8    1
    14     6     7    3
    15     8     9   am
    16     8    26    1
    17     9    10    2
    18     9    11    1
    19    11    17   ar
    20    11    12   ar
    21    12    13   ar
    22    13    14    1
    23    13    15   ar
    24    15    16   ar
    25    15    27    1
    26    16    17   ar
    27    16    28    1
    28    17    18    1
@<TRIPOS>SUBSTRUCTURE
     1 ZINC000277311370        1 TEMP              0 ****  ****    0 ROOT


##########                                Name:    ZINC000854500114
##########                DOCK_Rotatable_Bonds:                   7
##########                         Heavy_Atoms:                  24
##########                    Molecular_Weight:             399.288
##########                DOCK_Rotatable_Bonds:                   7
##########                       Formal_Charge:          -0.0399992
##########                     HBond_Acceptors:                   7
##########                        HBond_Donors:                   2
##########                         Heavy_Atoms:                  24
##########                          Grid_Score:          -25.849043
##########                     Grid_vdw_energy:          -25.218706
##########                      Grid_es_energy:           -0.630337
##########           Internal_energy_repulsive:           76.184441

@<TRIPOS>MOLECULE
ZINC000854500114
 47 49 1 0 0
SMALL
USER_CHARGES


@<TRIPOS>ATOM
      1 O1         -9.1948    0.5899   64.7201 O.2     1  ZINC000854500114   -0.5800
      2 C2         -8.6040    1.3161   63.9453 C.2     1  ZINC000854500114    0.6600
      3 N3         -7.4535    1.9090   64.3215 N.am    1  ZINC000854500114   -0.7100
      4 C4         -6.9184    1.6826   65.6664 C.3     1  ZINC000854500114    0.1600
      5 C5         -5.3849    1.8501   65.6600 C.3     1  ZINC000854500114   -0.1400
      6 C6         -5.1610    3.3148   66.1111 C.3     1  ZINC000854500114   -0.1300
      7 C7         -6.2555    3.5115   67.1892 C.3     1  ZINC000854500114   -0.1300
      8 C8         -7.4719    2.7390   66.6386 C.3     1  ZINC000854500114   -0.1300
      9 O9         -9.0957    1.5241   62.7094 O.3     1  ZINC000854500114   -0.3600
     10 C10       -10.2800    0.7717   62.3359 C.3     1  ZINC000854500114    0.1000
     11 C11        -9.8622   -0.5719   61.7351 C.3     1  ZINC000854500114    0.1500
     12 H12        -9.3689   -1.1754   62.4970 H       1  ZINC000854500114    0.0900
     13 C13        -8.9011   -0.3349   60.5658 C.3     1  ZINC000854500114   -0.1300
     14 C14        -8.5967   -1.6699   59.8823 C.3     1  ZINC000854500114   -0.1200
     15 C15        -9.8918   -2.2688   59.3291 C.3     1  ZINC000854500114   -0.1400
     16 C16       -10.8642   -2.5277   60.4843 C.3     1  ZINC000854500114    0.0900
     17 N17       -11.0499   -1.2801   61.2386 N.am    1  ZINC000854500114   -0.6100
     18 C18       -12.2857   -0.7926   61.4659 C.2     1  ZINC000854500114    0.5900
     19 O19       -12.4261    0.2410   62.0915 O.2     1  ZINC000854500114   -0.4900
     20 C20       -13.4650   -1.5108   60.9571 C.2     1  ZINC000854500114   -0.0300
     21 C21       -14.1085   -1.3007   59.7499 C.2     1  ZINC000854500114   -0.1200
     22 C22       -15.1603   -2.2205   59.7263 C.2     1  ZINC000854500114    0.0200
     23 Br23      -16.4193   -2.4370   58.3320 Br      1  ZINC000854500114    0.0400
     24 N24       -15.1190   -2.9058   60.8409 N.2     1  ZINC000854500114   -0.2400
     25 N25       -14.1404   -2.5222   61.5791 N.pl3   1  ZINC000854500114   -0.3700
     26 H26        -6.9798    2.4855   63.7018 H       1  ZINC000854500114    0.4000
     27 H27        -7.1842    0.6830   66.0103 H       1  ZINC000854500114    0.0900
     28 H28        -4.9227    1.1589   66.3649 H       1  ZINC000854500114    0.0800
     29 H29        -4.9883    1.6951   64.6566 H       1  ZINC000854500114    0.0700
     30 H30        -4.1674    3.4386   66.5422 H       1  ZINC000854500114    0.0700
     31 H31        -5.3104    4.0025   65.2788 H       1  ZINC000854500114    0.0700
     32 H32        -5.9339    3.0887   68.1410 H       1  ZINC000854500114    0.0700
     33 H33        -6.4944    4.5691   67.3017 H       1  ZINC000854500114    0.0700
     34 H34        -8.1388    3.4201   66.1099 H       1  ZINC000854500114    0.0700
     35 H35        -8.0056    2.2520   67.4548 H       1  ZINC000854500114    0.0800
     36 H36       -10.8946    0.5992   63.2195 H       1  ZINC000854500114    0.1000
     37 H37       -10.8522    1.3365   61.6000 H       1  ZINC000854500114    0.0700
     38 H38        -9.3614    0.3444   59.8485 H       1  ZINC000854500114    0.0800
     39 H39        -7.9750    0.1023   60.9390 H       1  ZINC000854500114    0.0900
     40 H40        -7.8938   -1.5076   59.0653 H       1  ZINC000854500114    0.0800
     41 H41        -8.1591   -2.3572   60.6063 H       1  ZINC000854500114    0.0700
     42 H42       -10.3429   -1.5712   58.6234 H       1  ZINC000854500114    0.0700
     43 H43        -9.6709   -3.2081   58.8221 H       1  ZINC000854500114    0.0800
     44 H44       -11.8230   -2.8610   60.0872 H       1  ZINC000854500114    0.0800
     45 H45       -10.4534   -3.2928   61.1431 H       1  ZINC000854500114    0.0800
     46 H46       -13.8522   -0.5793   58.9881 H       1  ZINC000854500114    0.1700
     47 H47       -13.9184   -2.8904   62.4486 H       1  ZINC000854500114    0.4500
@<TRIPOS>BOND
     1     1     2    2
     2     2     3   am
     3     2     9    1
     4     3     4    1
     5     3    26    1
     6     4     8    1
     7     4     5    1
     8     4    27    1
     9     5     6    1
    10     5    28    1
    11     5    29    1
    12     6     7    1
    13     6    30    1
    14     6    31    1
    15     7     8    1
    16     7    32    1
    17     7    33    1
    18     8    34    1
    19     8    35    1
    20     9    10    1
    21    10    11    1
    22    10    36    1
    23    10    37    1
    24    11    12    1
    25    11    17    1
    26    11    13    1
    27    13    14    1
    28    13    38    1
    29    13    39    1
    30    14    15    1
    31    14    40    1
    32    14    41    1
    33    15    16    1
    34    15    42    1
    35    15    43    1
    36    16    17    1
    37    16    44    1
    38    16    45    1
    39    17    18   am
    40    18    19    2
    41    18    20    1
    42    20    25    1
    43    20    21    2
    44    21    22    1
    45    21    46    1
    46    22    23    1
    47    22    24    2
    48    24    25    1
    49    25    47    1
@<TRIPOS>SUBSTRUCTURE
     1 ZINC000854500114        1 TEMP              0 ****  ****    0 ROOT


##########                                Name:    ZINC000866034032
##########                DOCK_Rotatable_Bonds:                   4
##########                         Heavy_Atoms:                  23
##########                    Molecular_Weight:             383.242
##########                DOCK_Rotatable_Bonds:                   4
##########                       Formal_Charge:           0.0199999
##########                     HBond_Acceptors:                   6
##########                        HBond_Donors:                   1
##########                         Heavy_Atoms:                  23
##########                          Grid_Score:          -25.840992
##########                     Grid_vdw_energy:          -25.500309
##########                      Grid_es_energy:           -0.340684
##########           Internal_energy_repulsive:           13.407116

@<TRIPOS>MOLECULE
ZINC000866034032
 42 44 1 0 0
SMALL
USER_CHARGES


@<TRIPOS>ATOM
      1 C1         -5.1141    3.1107   52.4248 C.3     1  ZINC000866034032   -0.1300
      2 C2         -3.7004    3.0746   51.8406 C.3     1  ZINC000866034032   -0.0800
      3 C3         -3.5729    2.1143   50.6563 C.3     1  ZINC000866034032   -0.1300
      4 C4         -3.1131    4.4681   51.5687 C.3     1  ZINC000866034032    0.1400
      5 H5         -3.8701    5.2374   51.4166 H       1  ZINC000866034032    0.1100
      6 N6         -2.0801    4.4750   50.5299 N.am    1  ZINC000866034032   -0.7000
      7 C7         -2.3210    5.0685   49.3441 C.2     1  ZINC000866034032    0.5100
      8 O8         -3.3934    5.5955   49.1364 O.2     1  ZINC000866034032   -0.5300
      9 C9         -1.2579    5.0771   48.2761 C.3     1  ZINC000866034032   -0.1100
     10 C10        -1.4059    3.8528   47.4099 C.ar    1  ZINC000866034032   -0.0500
     11 C11        -1.8392    3.9792   46.1034 C.ar    1  ZINC000866034032   -0.0500
     12 C12        -1.9756    2.8564   45.3086 C.ar    1  ZINC000866034032   -0.0900
     13 C13        -1.6779    1.6066   45.8206 C.ar    1  ZINC000866034032   -0.0500
     14 Br14       -1.8637    0.0704   44.7337 Br      1  ZINC000866034032    0.0200
     15 C15        -1.2439    1.4807   47.1282 C.ar    1  ZINC000866034032   -0.0200
     16 N16        -0.9247    0.1435   47.6766 N.pl3   1  ZINC000866034032    0.0200
     17 O17        -0.5425    0.0328   48.8278 O.2     1  ZINC000866034032   -0.1600
     18 O18        -1.0442   -0.8462   46.9767 O.2     1  ZINC000866034032   -0.1300
     19 C19        -1.1028    2.6042   47.9204 C.ar    1  ZINC000866034032   -0.0300
     20 C20        -2.5481    4.4371   52.9983 C.3     1  ZINC000866034032   -0.1500
     21 H21        -3.1579    4.9066   53.7701 H       1  ZINC000866034032    0.1200
     22 C22        -1.0400    4.7679   53.0549 C.3     1  ZINC000866034032   -0.1400
     23 C23        -0.3484    3.3887   52.9851 C.3     1  ZINC000866034032    0.0500
     24 O24        -1.3084    2.5269   52.3363 O.3     1  ZINC000866034032   -0.3600
     25 C25        -2.6036    2.8910   52.8998 C.3     1  ZINC000866034032    0.0600
     26 H26        -2.8796    2.3485   53.8040 H       1  ZINC000866034032    0.1000
     27 H27        -5.1104    3.6877   53.3496 H       1  ZINC000866034032    0.0600
     28 H28        -5.7913    3.5760   51.7088 H       1  ZINC000866034032    0.0700
     29 H29        -5.4475    2.0939   52.6324 H       1  ZINC000866034032    0.0700
     30 H30        -4.1193    2.5155   49.8028 H       1  ZINC000866034032    0.0600
     31 H31        -2.5214    1.9996   50.3931 H       1  ZINC000866034032    0.0600
     32 H32        -3.9872    1.1437   50.9292 H       1  ZINC000866034032    0.0600
     33 H33        -1.2228    4.0525   50.6955 H       1  ZINC000866034032    0.4100
     34 H34        -1.3665    5.9715   47.6624 H       1  ZINC000866034032    0.1100
     35 H35        -0.2731    5.0747   48.7435 H       1  ZINC000866034032    0.1200
     36 H36        -2.0717    4.9552   45.7037 H       1  ZINC000866034032    0.1500
     37 H37        -2.3149    2.9550   44.2880 H       1  ZINC000866034032    0.1600
     38 H38        -0.7635    2.5061   48.9411 H       1  ZINC000866034032    0.1600
     39 H39        -0.7519    5.3830   52.2024 H       1  ZINC000866034032    0.0800
     40 H40        -0.7945    5.2712   53.9901 H       1  ZINC000866034032    0.0800
     41 H41         0.5652    3.4518   52.3940 H       1  ZINC000866034032    0.0900
     42 H42        -0.1279    3.0237   53.9882 H       1  ZINC000866034032    0.0600
@<TRIPOS>BOND
     1     1     2    1
     2     1    27    1
     3     1    28    1
     4     1    29    1
     5     2    25    1
     6     2     3    1
     7     2     4    1
     8     3    30    1
     9     3    31    1
    10     3    32    1
    11     4     5    1
    12     4     6    1
    13     4    20    1
    14     6     7   am
    15     6    33    1
    16     7     8    2
    17     7     9    1
    18     9    10    1
    19     9    34    1
    20     9    35    1
    21    10    19   ar
    22    10    11   ar
    23    11    12   ar
    24    11    36    1
    25    12    13   ar
    26    12    37    1
    27    13    14    1
    28    13    15   ar
    29    15    16    1
    30    15    19   ar
    31    16    17    2
    32    16    18    2
    33    19    38    1
    34    20    21    1
    35    20    25    1
    36    20    22    1
    37    22    23    1
    38    22    39    1
    39    22    40    1
    40    23    24    1
    41    23    41    1
    42    23    42    1
    43    24    25    1
    44    25    26    1
@<TRIPOS>SUBSTRUCTURE
     1 ZINC000866034032        1 TEMP              0 ****  ****    0 ROOT


##########                                Name:    ZINC000840649129
##########                DOCK_Rotatable_Bonds:                   8
##########                         Heavy_Atoms:                  26
##########                    Molecular_Weight:             376.839
##########                DOCK_Rotatable_Bonds:                   8
##########                       Formal_Charge:          -0.0199998
##########                     HBond_Acceptors:                   7
##########                        HBond_Donors:                   3
##########                         Heavy_Atoms:                  26
##########                          Grid_Score:          -25.836935
##########                     Grid_vdw_energy:          -25.960199
##########                      Grid_es_energy:            0.123265
##########           Internal_energy_repulsive:           11.051750

@<TRIPOS>MOLECULE
ZINC000840649129
 47 48 1 0 0
SMALL
USER_CHARGES


@<TRIPOS>ATOM
      1 C1         -9.0200   -0.7836   59.5872 C.3     1  ZINC000840649129    0.0200
      2 O2         -9.6413   -2.0534   59.3783 O.3     1  ZINC000840649129   -0.2900
      3 C3        -10.9889   -2.1125   59.5304 C.ar    1  ZINC000840649129    0.1400
      4 C4        -11.5446   -2.1294   60.8004 C.ar    1  ZINC000840649129   -0.1700
      5 C5        -12.9148   -2.1896   60.9573 C.ar    1  ZINC000840649129   -0.1200
      6 C6        -13.7481   -2.2332   59.8445 C.ar    1  ZINC000840649129    0.1700
      7 N7        -15.1361   -2.2939   60.0135 N.pl3   1  ZINC000840649129   -0.8800
      8 C8        -13.2078   -2.2160   58.5702 C.ar    1  ZINC000840649129   -0.1000
      9 C9        -11.8220   -2.1508   58.4037 C.ar    1  ZINC000840649129   -0.1200
     10 C10       -11.2387   -2.1317   57.0501 C.2     1  ZINC000840649129    0.5100
     11 O11       -11.2352   -3.1425   56.3757 O.2     1  ZINC000840649129   -0.4800
     12 O12       -10.7093   -0.9932   56.5607 O.3     1  ZINC000840649129   -0.3200
     13 C13       -10.8461   -0.7630   55.1335 C.3     1  ZINC000840649129    0.0800
     14 H14       -11.2965   -1.6384   54.6658 H       1  ZINC000840649129    0.1200
     15 C15        -9.4865   -0.5157   54.5321 C.2     1  ZINC000840649129    0.5200
     16 O16        -8.5145   -0.4161   55.2507 O.2     1  ZINC000840649129   -0.4900
     17 N17        -9.3508   -0.4054   53.1958 N.am    1  ZINC000840649129   -0.6600
     18 C18        -8.0880   -0.1758   52.6371 C.ar    1  ZINC000840649129    0.1600
     19 C19        -7.3451   -1.2366   52.1375 C.ar    1  ZINC000840649129   -0.1400
     20 C20        -6.0992   -1.0068   51.5863 C.ar    1  ZINC000840649129   -0.0900
     21 C21        -5.5916    0.2780   51.5316 C.ar    1  ZINC000840649129   -0.1300
     22 C22        -6.3284    1.3377   52.0288 C.ar    1  ZINC000840649129   -0.0900
     23 C23        -7.5776    1.1156   52.5762 C.ar    1  ZINC000840649129   -0.0700
     24 Cl24       -8.5025    2.4460   53.1995 Cl      1  ZINC000840649129   -0.0700
     25 C25       -11.7379    0.4574   54.8970 C.3     1  ZINC000840649129   -0.1100
     26 C26       -13.0134    0.0240   54.1715 C.3     1  ZINC000840649129   -0.1600
     27 C27       -12.1055    1.0887   56.2414 C.3     1  ZINC000840649129   -0.1500
     28 H28        -7.9446   -0.8758   59.4345 H       1  ZINC000840649129    0.1000
     29 H29        -9.4264   -0.0596   58.8810 H       1  ZINC000840649129    0.0600
     30 H30        -9.2148   -0.4469   60.6054 H       1  ZINC000840649129    0.0600
     31 H31       -10.9040   -2.0959   61.6691 H       1  ZINC000840649129    0.1400
     32 H32       -13.3419   -2.2031   61.9492 H       1  ZINC000840649129    0.1300
     33 H33       -15.5160   -2.3057   60.9060 H       1  ZINC000840649129    0.4000
     34 H34       -15.7183   -2.3244   59.2383 H       1  ZINC000840649129    0.4000
     35 H35       -13.8558   -2.2495   57.7068 H       1  ZINC000840649129    0.1400
     36 H36       -10.1281   -0.4853   52.6211 H       1  ZINC000840649129    0.4200
     37 H37        -7.7404   -2.2407   52.1799 H       1  ZINC000840649129    0.1700
     38 H38        -5.5209   -1.8320   51.1978 H       1  ZINC000840649129    0.1300
     39 H39        -4.6175    0.4545   51.1002 H       1  ZINC000840649129    0.1300
     40 H40        -5.9290    2.3401   51.9849 H       1  ZINC000840649129    0.1400
     41 H41       -11.2030    1.1858   54.2876 H       1  ZINC000840649129    0.0900
     42 H42       -13.4822   -0.7943   54.7181 H       1  ZINC000840649129    0.0700
     43 H43       -13.7035    0.8659   54.1155 H       1  ZINC000840649129    0.0800
     44 H44       -12.7632   -0.3084   53.1640 H       1  ZINC000840649129    0.0600
     45 H45       -11.1968    1.3975   56.7583 H       1  ZINC000840649129    0.0500
     46 H46       -12.7409    1.9582   56.0729 H       1  ZINC000840649129    0.0600
     47 H47       -12.6404    0.3604   56.8508 H       1  ZINC000840649129    0.0700
@<TRIPOS>BOND
     1     1     2    1
     2     1    28    1
     3     1    29    1
     4     1    30    1
     5     2     3    1
     6     3     9   ar
     7     3     4   ar
     8     4     5   ar
     9     4    31    1
    10     5     6   ar
    11     5    32    1
    12     6     7    1
    13     6     8   ar
    14     7    33    1
    15     7    34    1
    16     8     9   ar
    17     8    35    1
    18     9    10    1
    19    10    11    2
    20    10    12    1
    21    12    13    1
    22    13    14    1
    23    13    15    1
    24    13    25    1
    25    15    16    2
    26    15    17   am
    27    17    18    1
    28    17    36    1
    29    18    23   ar
    30    18    19   ar
    31    19    20   ar
    32    19    37    1
    33    20    21   ar
    34    20    38    1
    35    21    22   ar
    36    21    39    1
    37    22    23   ar
    38    22    40    1
    39    23    24    1
    40    25    26    1
    41    25    27    1
    42    25    41    1
    43    26    42    1
    44    26    43    1
    45    26    44    1
    46    27    45    1
    47    27    46    1
    48    27    47    1
@<TRIPOS>SUBSTRUCTURE
     1 ZINC000840649129        1 TEMP              0 ****  ****    0 ROOT


##########                                Name:    ZINC000493443319
##########                DOCK_Rotatable_Bonds:                   6
##########                         Heavy_Atoms:                  25
##########                    Molecular_Weight:             348.399
##########                DOCK_Rotatable_Bonds:                   6
##########                       Formal_Charge:        -3.27826e-07
##########                     HBond_Acceptors:                   7
##########                        HBond_Donors:                   0
##########                         Heavy_Atoms:                  25
##########                          Grid_Score:          -25.820141
##########                     Grid_vdw_energy:          -24.014193
##########                      Grid_es_energy:           -1.805948
##########           Internal_energy_repulsive:           58.423782

@<TRIPOS>MOLECULE
ZINC000493443319
 49 51 1 0 0
SMALL
USER_CHARGES


@<TRIPOS>ATOM
      1 C1         -9.8338   -1.3510   51.5981 C.3     1  <0>        -0.1500
      2 C2        -10.0721    0.1568   51.7006 C.3     1  <0>         0.0500
      3 O3        -11.2530    0.4015   52.4670 O.3     1  <0>        -0.3200
      4 C4        -11.2100    0.0784   53.7872 C.ar    1  <0>         0.1000
      5 C5        -12.3856   -0.0106   54.5180 C.ar    1  <0>        -0.1700
      6 C6        -12.3421   -0.3387   55.8590 C.ar    1  <0>        -0.1100
      7 C7        -11.1228   -0.5797   56.4748 C.ar    1  <0>         0.0800
      8 O8        -11.0800   -0.9025   57.7951 O.3     1  <0>        -0.3000
      9 C9        -11.2414   -2.2820   58.1312 C.3     1  <0>         0.1000
     10 C10       -10.8690   -3.1477   56.9258 C.3     1  <0>        -0.1800
     11 C11       -10.3300   -2.6297   59.3099 C.3     1  <0>        -0.1500
     12 C12       -12.6762   -2.5417   58.5121 C.2     1  <0>         0.5100
     13 O13       -13.2682   -3.4873   58.0365 O.2     1  <0>        -0.5200
     14 N14       -13.3015   -1.7230   59.3811 N.am    1  <0>        -0.6000
     15 C15       -14.6993   -1.9733   59.7542 C.3     1  <0>         0.0700
     16 C16       -14.7946   -2.1066   61.2826 C.3     1  <0>         0.1300
     17 N17       -14.0211   -1.0031   61.8687 N.am    1  <0>        -0.6300
     18 C18       -14.4158   -0.1025   62.7702 C.2     1  <0>         0.6500
     19 O19       -15.4697   -0.1796   63.3701 O.2     1  <0>        -0.5200
     20 O20       -13.5400    0.8953   62.9509 O.3     1  <0>        -0.3200
     21 C21       -12.3457    0.6443   62.1524 C.3     1  <0>         0.0500
     22 C22       -12.6219   -0.7136   61.4870 C.3     1  <0>         0.0800
     23 H23       -11.9394   -1.4830   61.8481 H       1  <0>         0.1100
     24 C24       -12.5840   -0.5789   59.9643 C.3     1  <0>         0.1000
     25 C25        -9.9475   -0.4922   55.7437 C.ar    1  <0>        -0.1800
     26 C26        -9.9913   -0.1677   54.4017 C.ar    1  <0>        -0.1100
     27 H27        -8.9330   -1.5378   51.0135 H       1  <0>         0.0800
     28 H28        -9.7112   -1.7683   52.5976 H       1  <0>         0.0700
     29 H29       -10.6875   -1.8214   51.1103 H       1  <0>         0.0700
     30 H30        -9.2183    0.6272   52.1884 H       1  <0>         0.0600
     31 H31       -10.1946    0.5739   50.7010 H       1  <0>         0.0600
     32 H32       -13.3350    0.1772   54.0384 H       1  <0>         0.1400
     33 H33       -13.2574   -0.4073   56.4282 H       1  <0>         0.1400
     34 H34        -9.8000   -3.0598   56.7319 H       1  <0>         0.0800
     35 H35       -11.1159   -4.1884   57.1358 H       1  <0>         0.0900
     36 H36       -11.4259   -2.8114   56.0511 H       1  <0>         0.0800
     37 H37       -10.5349   -1.9531   60.1395 H       1  <0>         0.0800
     38 H38       -10.5175   -3.6566   59.6236 H       1  <0>         0.0900
     39 H39        -9.2882   -2.5272   59.0062 H       1  <0>         0.0900
     40 H40       -15.3199   -1.1414   59.4214 H       1  <0>         0.0800
     41 H41       -15.0421   -2.8958   59.2857 H       1  <0>         0.1300
     42 H42       -15.8362   -2.0366   61.5964 H       1  <0>         0.1100
     43 H43       -14.3750   -3.0618   61.5982 H       1  <0>         0.0800
     44 H44       -12.2201    1.4210   61.3981 H       1  <0>         0.1100
     45 H45       -11.4644    0.5847   62.7912 H       1  <0>         0.1100
     46 H46       -11.5497   -0.5790   59.6204 H       1  <0>         0.1100
     47 H47       -13.0723    0.3484   59.6645 H       1  <0>         0.0800
     48 H48        -8.9981   -0.6802   56.2231 H       1  <0>         0.1600
     49 H49        -9.0760   -0.0996   53.8325 H       1  <0>         0.1300
@<TRIPOS>BOND
     1     1     2    1
     2     1    27    1
     3     1    28    1
     4     1    29    1
     5     2     3    1
     6     2    30    1
     7     2    31    1
     8     3     4    1
     9     4    26   ar
    10     4     5   ar
    11     5     6   ar
    12     5    32    1
    13     6     7   ar
    14     6    33    1
    15     7     8    1
    16     7    25   ar
    17     8     9    1
    18     9    10    1
    19     9    11    1
    20     9    12    1
    21    10    34    1
    22    10    35    1
    23    10    36    1
    24    11    37    1
    25    11    38    1
    26    11    39    1
    27    12    13    2
    28    12    14   am
    29    14    24    1
    30    14    15    1
    31    15    16    1
    32    15    40    1
    33    15    41    1
    34    16    17    1
    35    16    42    1
    36    16    43    1
    37    17    22    1
    38    17    18   am
    39    18    19    2
    40    18    20    1
    41    20    21    1
    42    21    22    1
    43    21    44    1
    44    21    45    1
    45    22    23    1
    46    22    24    1
    47    24    46    1
    48    24    47    1
    49    25    26   ar
    50    25    48    1
    51    26    49    1
@<TRIPOS>SUBSTRUCTURE
     1 <0>         1 TEMP              0 ****  ****    0 ROOT


##########                                Name:    ZINC001060620810
##########                DOCK_Rotatable_Bonds:                   5
##########                         Heavy_Atoms:                  24
##########                    Molecular_Weight:             332.421
##########                DOCK_Rotatable_Bonds:                   5
##########                       Formal_Charge:           0.0299998
##########                     HBond_Acceptors:                   6
##########                        HBond_Donors:                   2
##########                         Heavy_Atoms:                  24
##########                          Grid_Score:          -25.752802
##########                     Grid_vdw_energy:          -25.249886
##########                      Grid_es_energy:           -0.502915
##########           Internal_energy_repulsive:            8.799425

@<TRIPOS>MOLECULE
ZINC001060620810
 49 52 1 0 0
SMALL
USER_CHARGES


@<TRIPOS>ATOM
      1 O1        -10.1742   -3.0513   56.3563 O.2     1  ZINC001060620810   -0.5400
      2 C2        -10.0816   -1.8486   56.2305 C.2     1  ZINC001060620810    0.5500
      3 N3         -9.7590   -1.0829   57.2916 N.am    1  ZINC001060620810   -0.7200
      4 C4         -9.5183   -1.7036   58.5966 C.3     1  ZINC001060620810    0.1400
      5 C5         -8.4179   -0.9354   59.3315 C.3     1  ZINC001060620810   -0.1300
      6 C6         -8.1666   -1.5835   60.6945 C.3     1  ZINC001060620810   -0.1300
      7 C7         -9.4534   -1.5475   61.5215 C.3     1  ZINC001060620810    0.1600
      8 N8         -9.8724   -0.1567   61.7121 N.pl3   1  ZINC001060620810   -0.6900
      9 C9         -9.6509    0.4735   62.9258 C.ar    1  ZINC001060620810    0.5600
     10 N10        -8.9882   -0.1691   63.8757 N.ar    1  ZINC001060620810   -0.5400
     11 C11        -8.7549    0.4048   65.0447 C.ar    1  ZINC001060620810    0.1700
     12 C12        -9.2233    1.6913   65.2721 C.ar    1  ZINC001060620810   -0.0700
     13 F13        -9.0072    2.3058   66.4557 F       1  ZINC001060620810   -0.1300
     14 C14        -9.9182    2.3325   64.2563 C.ar    1  ZINC001060620810    0.1800
     15 N15       -10.1116    1.7016   63.1095 N.ar    1  ZINC001060620810   -0.5500
     16 C16       -10.5537   -2.3156   60.7866 C.3     1  ZINC001060620810   -0.1200
     17 C17       -10.8050   -1.6673   59.4237 C.3     1  ZINC001060620810   -0.1300
     18 C18       -10.3274   -1.2103   54.8876 C.3     1  ZINC001060620810   -0.1500
     19 C19        -9.7238   -1.9294   53.6884 C.3     1  ZINC001060620810   -0.1500
     20 C20        -9.1030   -0.6423   54.1873 C.3     1  ZINC001060620810   -0.1100
     21 H21        -8.1448   -0.7430   54.6969 H       1  ZINC001060620810    0.1100
     22 C22        -9.2195    0.5891   53.2945 C.3     1  ZINC001060620810   -0.0900
     23 C23       -10.5027    1.3584   53.6090 C.3     1  ZINC001060620810   -0.1200
     24 C24       -11.6873    0.3895   53.5201 C.3     1  ZINC001060620810   -0.1200
     25 C25       -11.6723   -0.5132   54.7537 C.3     1  ZINC001060620810   -0.0800
     26 H26        -9.6861   -0.1209   57.1913 H       1  ZINC001060620810    0.4000
     27 H27        -9.2065   -2.7383   58.4549 H       1  ZINC001060620810    0.0900
     28 H28        -7.5012   -0.9611   58.7424 H       1  ZINC001060620810    0.0700
     29 H29        -8.7298    0.0994   59.4733 H       1  ZINC001060620810    0.0600
     30 H30        -7.3827   -1.0363   61.2180 H       1  ZINC001060620810    0.0700
     31 H31        -7.8547   -2.6183   60.5527 H       1  ZINC001060620810    0.0800
     32 H32        -9.2742   -2.0092   62.4925 H       1  ZINC001060620810    0.1000
     33 H33       -10.3050    0.3229   60.9884 H       1  ZINC001060620810    0.4100
     34 H34        -8.2107   -0.1229   65.8139 H       1  ZINC001060620810    0.1800
     35 H35       -10.2966    3.3336   64.4001 H       1  ZINC001060620810    0.1800
     36 H36       -11.4703   -2.2899   61.3758 H       1  ZINC001060620810    0.0800
     37 H37       -10.2418   -3.3503   60.6448 H       1  ZINC001060620810    0.0900
     38 H38       -11.1168   -0.6326   59.5654 H       1  ZINC001060620810    0.0700
     39 H39       -11.5889   -2.2146   58.9001 H       1  ZINC001060620810    0.0800
     40 H40        -9.1747   -2.8518   53.8778 H       1  ZINC001060620810    0.1000
     41 H41       -10.2760   -1.8942   52.7493 H       1  ZINC001060620810    0.1100
     42 H42        -9.2417    0.2588   52.2560 H       1  ZINC001060620810    0.0700
     43 H43        -8.3601    1.2419   53.4477 H       1  ZINC001060620810    0.0700
     44 H44       -10.6333    2.1635   52.8860 H       1  ZINC001060620810    0.0700
     45 H45       -10.4436    1.7728   54.6155 H       1  ZINC001060620810    0.0700
     46 H46       -11.5957   -0.2189   52.6203 H       1  ZINC001060620810    0.0700
     47 H47       -12.6198    0.9533   53.4905 H       1  ZINC001060620810    0.0700
     48 H48       -12.4582   -1.2628   54.6605 H       1  ZINC001060620810    0.0700
     49 H49       -11.8547    0.0904   55.6427 H       1  ZINC001060620810    0.0700
@<TRIPOS>BOND
     1     1     2    2
     2     2     3   am
     3     2    18    1
     4     3     4    1
     5     3    26    1
     6     4    17    1
     7     4     5    1
     8     4    27    1
     9     5     6    1
    10     5    28    1
    11     5    29    1
    12     6     7    1
    13     6    30    1
    14     6    31    1
    15     7     8    1
    16     7    16    1
    17     7    32    1
    18     8     9    1
    19     8    33    1
    20     9    15   ar
    21     9    10   ar
    22    10    11   ar
    23    11    12   ar
    24    11    34    1
    25    12    13    1
    26    12    14   ar
    27    14    15   ar
    28    14    35    1
    29    16    17    1
    30    16    36    1
    31    16    37    1
    32    17    38    1
    33    17    39    1
    34    18    20    1
    35    18    25    1
    36    18    19    1
    37    19    20    1
    38    19    40    1
    39    19    41    1
    40    20    21    1
    41    20    22    1
    42    22    23    1
    43    22    42    1
    44    22    43    1
    45    23    24    1
    46    23    44    1
    47    23    45    1
    48    24    25    1
    49    24    46    1
    50    24    47    1
    51    25    48    1
    52    25    49    1
@<TRIPOS>SUBSTRUCTURE
     1 ZINC001060620810        1 TEMP              0 ****  ****    0 ROOT


##########                                Name:    ZINC000011498449
##########                DOCK_Rotatable_Bonds:                   5
##########                         Heavy_Atoms:                  21
##########                    Molecular_Weight:             331.198
##########                DOCK_Rotatable_Bonds:                   5
##########                       Formal_Charge:         1.30385e-07
##########                     HBond_Acceptors:                   7
##########                        HBond_Donors:                   1
##########                         Heavy_Atoms:                  21
##########                          Grid_Score:          -25.724609
##########                     Grid_vdw_energy:          -25.017889
##########                      Grid_es_energy:           -0.706720
##########           Internal_energy_repulsive:           10.220876

@<TRIPOS>MOLECULE
ZINC000011498449
 37 38 1 0 0
SMALL
USER_CHARGES


@<TRIPOS>ATOM
      1 C1         -7.0987   -0.4182   51.9521 C.3     1  ZINC000011498449   -0.1500
      2 C2         -8.5121    0.0295   52.3304 C.3     1  ZINC000011498449    0.0700
      3 H3         -8.4607    0.7357   53.1590 H       1  ZINC000011498449    0.0600
      4 C4         -9.3409   -1.1906   52.7482 C.3     1  ZINC000011498449    0.0800
      5 N5        -10.7381   -0.7640   52.9250 N.am    1  ZINC000011498449   -0.6100
      6 C6        -11.4192   -1.0669   54.0478 C.2     1  ZINC000011498449    0.5100
      7 O7        -12.5707   -0.7076   54.1741 O.2     1  ZINC000011498449   -0.5300
      8 C8        -10.7501   -1.8523   55.1462 C.3     1  ZINC000011498449    0.1000
      9 N9        -11.5245   -1.7197   56.3827 N.am    1  ZINC000011498449   -0.7200
     10 C10       -11.5188   -2.7151   57.2914 C.2     1  ZINC000011498449    0.5600
     11 O11       -10.8699   -3.7223   57.0857 O.2     1  ZINC000011498449   -0.5100
     12 C12       -12.3010   -2.5821   58.5374 C.ar    1  ZINC000011498449   -0.1300
     13 C13       -13.6907   -2.7156   58.5104 C.ar    1  ZINC000011498449   -0.0600
     14 C14       -14.4153   -2.5909   59.6766 C.ar    1  ZINC000011498449   -0.1100
     15 C15       -13.7683   -2.3338   60.8743 C.ar    1  ZINC000011498449    0.0000
     16 Cl16      -14.6888   -2.1790   62.3380 Cl      1  ZINC000011498449   -0.0400
     17 C17       -12.3906   -2.2002   60.9091 C.ar    1  ZINC000011498449   -0.1100
     18 C18       -11.6527   -2.3280   59.7493 C.ar    1  ZINC000011498449    0.0300
     19 Cl19       -9.9255   -2.1605   59.7939 Cl      1  ZINC000011498449   -0.0100
     20 C20       -11.3695    0.0037   51.8399 C.3     1  ZINC000011498449    0.0700
     21 C21       -10.4418    1.1655   51.4663 C.3     1  ZINC000011498449    0.0500
     22 O22        -9.1313    0.6575   51.2053 O.3     1  ZINC000011498449   -0.3700
     23 H23        -6.5106    0.4495   51.6534 H       1  ZINC000011498449    0.0700
     24 H24        -6.6280   -0.8985   52.8098 H       1  ZINC000011498449    0.0800
     25 H25        -7.1509   -1.1245   51.1235 H       1  ZINC000011498449    0.0700
     26 H26        -9.2857   -1.9548   51.9730 H       1  ZINC000011498449    0.0800
     27 H27        -8.9577   -1.5908   53.6869 H       1  ZINC000011498449    0.1000
     28 H28       -10.6975   -2.9032   54.8614 H       1  ZINC000011498449    0.1000
     29 H29        -9.7425   -1.4682   55.3056 H       1  ZINC000011498449    0.1000
     30 H30       -12.0414   -0.9155   56.5474 H       1  ZINC000011498449    0.4100
     31 H31       -14.1969   -2.9157   57.5776 H       1  ZINC000011498449    0.1500
     32 H32       -15.4902   -2.6937   59.6564 H       1  ZINC000011498449    0.1500
     33 H33       -11.8919   -1.9998   61.8459 H       1  ZINC000011498449    0.1500
     34 H34       -11.5186   -0.6403   50.9732 H       1  ZINC000011498449    0.0900
     35 H35       -12.3297    0.3944   52.1770 H       1  ZINC000011498449    0.1000
     36 H36       -10.8232    1.6639   50.5752 H       1  ZINC000011498449    0.1100
     37 H37       -10.3982    1.8763   52.2915 H       1  ZINC000011498449    0.0600
@<TRIPOS>BOND
     1     1     2    1
     2     1    23    1
     3     1    24    1
     4     1    25    1
     5     2     3    1
     6     2    22    1
     7     2     4    1
     8     4     5    1
     9     4    26    1
    10     4    27    1
    11     5     6   am
    12     5    20    1
    13     6     7    2
    14     6     8    1
    15     8     9    1
    16     8    28    1
    17     8    29    1
    18     9    10   am
    19     9    30    1
    20    10    11    2
    21    10    12    1
    22    12    18   ar
    23    12    13   ar
    24    13    14   ar
    25    13    31    1
    26    14    15   ar
    27    14    32    1
    28    15    16    1
    29    15    17   ar
    30    17    18   ar
    31    17    33    1
    32    18    19    1
    33    20    21    1
    34    20    34    1
    35    20    35    1
    36    21    22    1
    37    21    36    1
    38    21    37    1
@<TRIPOS>SUBSTRUCTURE
     1 ZINC000011498449        1 TEMP              0 ****  ****    0 ROOT


##########                                Name:      oleObject5.pdb
##########                DOCK_Rotatable_Bonds:                   5
##########                         Heavy_Atoms:                  24
##########                    Molecular_Weight:             323.438
##########                DOCK_Rotatable_Bonds:                   5
##########                       Formal_Charge:         0.000200074
##########                     HBond_Acceptors:                   4
##########                        HBond_Donors:                   2
##########                         Heavy_Atoms:                  24
##########                          Grid_Score:          -25.698252
##########                     Grid_vdw_energy:          -25.166920
##########                      Grid_es_energy:           -0.531331
##########           Internal_energy_repulsive:           10.556607

@<TRIPOS>MOLECULE
oleObject5.pdb
 49 51 1 0 0
SMALL
NO_CHARGES


@<TRIPOS>ATOM
      1 C           1.1708    0.2549   50.7912 C.3     1  UNL        -0.0394
      2 C           1.5739    1.1790   49.6462 C.ar    1  UNL        -0.0456
      3 C           2.9296    1.5485   49.5439 C.ar    1  UNL        -0.0590
      4 C           3.3659    2.4121   48.5293 C.ar    1  UNL        -0.0620
      5 C           2.4450    2.9217   47.6061 C.ar    1  UNL        -0.0619
      6 C           1.0926    2.5635   47.6988 C.ar    1  UNL        -0.0565
      7 C           0.6384    1.6870   48.7071 C.ar    1  UNL        -0.0188
      8 C          -0.8599    1.3604   48.7686 C.3     1  UNL         0.0906
      9 N          -1.5847    2.4969   49.3641 N.am    1  UNL        -0.3025
     10 C          -2.8115    2.3648   49.9894 C.2     1  UNL         0.2156
     11 O          -3.2982    1.2746   50.2354 O.2     1  UNL        -0.2774
     12 C          -3.3795    3.6881   50.5367 C.3     1  UNL         0.0382
     13 C          -2.2520    4.6201   51.0559 C.3     1  UNL        -0.0292
     14 C          -1.6786    4.1289   52.4030 C.3     1  UNL        -0.0041
     15 N          -2.7469    4.0018   53.4092 N.4     1  UNL        -0.3167
     16 C          -3.8212    3.0762   53.0080 C.3     1  UNL        -0.0041
     17 C          -4.4449    3.4774   51.6474 C.3     1  UNL        -0.0292
     18 C          -1.4135    0.9529   47.3924 C.ar    1  UNL         0.0681
     19 N          -2.1590    1.8783   46.7407 N.ar    1  UNL        -0.2587
     20 C          -2.6644    1.5855   45.5278 C.ar    1  UNL         0.0272
     21 C          -2.4493    0.3517   44.8965 C.ar    1  UNL        -0.0435
     22 C          -1.6756   -0.6138   45.5561 C.ar    1  UNL        -0.0559
     23 C          -1.1432   -0.3180   46.8253 C.ar    1  UNL        -0.0272
     24 C          -0.2950   -1.3637   47.5381 C.3     1  UNL        -0.0379
     25 H           2.0480   -0.1401   51.3186 H       1  UNL         0.0280
     26 H           0.5991   -0.6098   50.4366 H       1  UNL         0.0280
     27 H           0.5647    0.7870   51.5323 H       1  UNL         0.0280
     28 H           3.6530    1.1682   50.2599 H       1  UNL         0.0626
     29 H           4.4140    2.6896   48.4635 H       1  UNL         0.0623
     30 H           2.7766    3.5968   46.8223 H       1  UNL         0.0623
     31 H           0.3915    2.9793   46.9813 H       1  UNL         0.0627
     32 H          -1.0209    0.5048   49.4312 H       1  UNL         0.0624
     33 H          -1.0110    3.2783   49.6533 H       1  UNL         0.1504
     34 H          -3.8707    4.1860   49.6906 H       1  UNL         0.0402
     35 H          -2.6581    5.6306   51.1930 H       1  UNL         0.0288
     36 H          -1.4451    4.7079   50.3177 H       1  UNL         0.0288
     37 H          -0.9192    4.8378   52.7564 H       1  UNL         0.0428
     38 H          -1.1877    3.1577   52.2577 H       1  UNL         0.0428
     39 H          -3.1505    4.9225   53.5776 H       1  UNL         0.1222
     40 H          -4.6043    3.0647   53.7766 H       1  UNL         0.0428
     41 H          -3.4157    2.0591   52.9396 H       1  UNL         0.0428
     42 H          -5.0011    4.4138   51.7836 H       1  UNL         0.0288
     43 H          -5.1770    2.7223   51.3332 H       1  UNL         0.0288
     44 H          -3.2584    2.3629   45.0490 H       1  UNL         0.0840
     45 H          -2.8720    0.1498   43.9168 H       1  UNL         0.0639
     46 H          -1.4921   -1.5761   45.0864 H       1  UNL         0.0627
     47 H          -0.1977   -2.2798   46.9423 H       1  UNL         0.0280
     48 H          -0.7412   -1.6469   48.4993 H       1  UNL         0.0280
     49 H           0.7186   -0.9888   47.7250 H       1  UNL         0.0280
@<TRIPOS>BOND
     1     1     2    1
     2     1    25    1
     3     1    26    1
     4     1    27    1
     5     2     3   ar
     6     2     7   ar
     7     3     4   ar
     8     3    28    1
     9     4     5   ar
    10     4    29    1
    11     5     6   ar
    12     5    30    1
    13     6     7   ar
    14     6    31    1
    15     7     8    1
    16     8     9    1
    17     8    18    1
    18     8    32    1
    19     9    10   am
    20     9    33    1
    21    10    11    2
    22    10    12    1
    23    12    13    1
    24    12    17    1
    25    12    34    1
    26    13    14    1
    27    13    35    1
    28    13    36    1
    29    14    15    1
    30    14    37    1
    31    14    38    1
    32    15    16    1
    33    15    39    1
    34    16    17    1
    35    16    40    1
    36    16    41    1
    37    17    42    1
    38    17    43    1
    39    18    19   ar
    40    18    23   ar
    41    19    20   ar
    42    20    21   ar
    43    20    44    1
    44    21    22   ar
    45    21    45    1
    46    22    23   ar
    47    22    46    1
    48    23    24    1
    49    24    47    1
    50    24    48    1
    51    24    49    1
@<TRIPOS>SUBSTRUCTURE
     1 UNL         1 TEMP              0 ****  ****    0 ROOT


##########                                Name:    ZINC000618094467
##########                DOCK_Rotatable_Bonds:                   5
##########                         Heavy_Atoms:                  27
##########                    Molecular_Weight:             370.492
##########                DOCK_Rotatable_Bonds:                   5
##########                       Formal_Charge:                0.03
##########                     HBond_Acceptors:                   5
##########                        HBond_Donors:                   0
##########                         Heavy_Atoms:                  27
##########                          Grid_Score:          -25.642944
##########                     Grid_vdw_energy:          -25.500721
##########                      Grid_es_energy:           -0.142223
##########           Internal_energy_repulsive:          104.415733

@<TRIPOS>MOLECULE
ZINC000618094467
 57 59 1 0 0
SMALL
USER_CHARGES


@<TRIPOS>ATOM
      1 C1        -15.1876    1.2133   61.8046 C.3     1  ZINC000618094467   -0.1500
      2 C2        -14.1182    0.5309   60.9493 C.3     1  ZINC000618094467   -0.1000
      3 C3        -13.6268   -0.7323   61.6590 C.3     1  ZINC000618094467   -0.1100
      4 H4        -13.4632   -0.5156   62.7146 H       1  ZINC000618094467    0.1000
      5 C5        -14.6778   -1.8358   61.5219 C.3     1  ZINC000618094467   -0.1500
      6 C6        -12.3342   -1.1892   61.0336 C.2     1  ZINC000618094467    0.5200
      7 O7        -12.3205   -2.1651   60.3136 O.2     1  ZINC000618094467   -0.5000
      8 N8        -11.1932   -0.5134   61.2742 N.am    1  ZINC000618094467   -0.6100
      9 C9        -11.1762    0.6705   62.1399 C.3     1  ZINC000618094467    0.1400
     10 C10        -9.9952    0.5990   63.0751 C.ar    1  ZINC000618094467   -0.1000
     11 C11        -9.9473    1.5019   64.1280 C.ar    1  ZINC000618094467   -0.1100
     12 C12        -8.8870    1.4925   65.0112 C.ar    1  ZINC000618094467   -0.1200
     13 C13        -7.8646    0.5773   64.8448 C.ar    1  ZINC000618094467   -0.1100
     14 C14        -7.9132   -0.3234   63.8010 C.ar    1  ZINC000618094467   -0.1200
     15 C15        -8.9824   -0.3201   62.9138 C.ar    1  ZINC000618094467   -0.0600
     16 C16        -8.9812   -1.3502   61.8152 C.3     1  ZINC000618094467   -0.0800
     17 C17        -9.9130   -0.9376   60.6837 C.3     1  ZINC000618094467    0.1200
     18 H18        -9.4750   -0.1075   60.1294 H       1  ZINC000618094467    0.1000
     19 C19       -10.1394   -2.1054   59.7584 C.2     1  ZINC000618094467    0.5500
     20 O20       -10.2424   -3.2261   60.2102 O.2     1  ZINC000618094467   -0.5200
     21 N21       -10.2272   -1.9042   58.4286 N.am    1  ZINC000618094467   -0.6100
     22 C22       -10.4536   -3.0352   57.5196 C.3     1  ZINC000618094467    0.1200
     23 C23       -11.7299   -2.7707   56.7107 C.3     1  ZINC000618094467   -0.1600
     24 H24       -11.8097   -3.4981   55.9029 H       1  ZINC000618094467    0.1100
     25 C25       -12.9515   -2.8807   57.6254 C.3     1  ZINC000618094467   -0.1400
     26 C26       -11.6492   -1.3747   56.1331 C.2     1  ZINC000618094467    0.3700
     27 O27       -11.8085   -1.1842   54.9513 O.2     1  ZINC000618094467   -0.4400
     28 C28       -11.3646   -0.2230   57.0720 C.3     1  ZINC000618094467   -0.1600
     29 H29       -12.2045   -0.0892   57.7538 H       1  ZINC000618094467    0.1100
     30 C30       -11.1474    1.0583   56.2647 C.3     1  ZINC000618094467   -0.1400
     31 C31       -10.1036   -0.5506   57.8723 C.3     1  ZINC000618094467    0.1400
     32 H32       -14.7624    1.4819   62.7718 H       1  ZINC000618094467    0.0500
     33 H33       -15.5377    2.1132   61.2990 H       1  ZINC000618094467    0.0600
     34 H34       -16.0245    0.5307   61.9527 H       1  ZINC000618094467    0.0600
     35 H35       -14.5435    0.2622   59.9822 H       1  ZINC000618094467    0.0700
     36 H36       -13.2813    1.2134   60.8013 H       1  ZINC000618094467    0.0700
     37 H37       -14.9424   -1.9570   60.4715 H       1  ZINC000618094467    0.0700
     38 H38       -14.2729   -2.7726   61.9050 H       1  ZINC000618094467    0.0700
     39 H39       -15.5664   -1.5641   62.0916 H       1  ZINC000618094467    0.0700
     40 H40       -11.0986    1.5678   61.5259 H       1  ZINC000618094467    0.0900
     41 H41       -12.0975    0.7082   62.7213 H       1  ZINC000618094467    0.1100
     42 H42       -10.7457    2.2179   64.2568 H       1  ZINC000618094467    0.1300
     43 H43        -8.8560    2.1973   65.8289 H       1  ZINC000618094467    0.1300
     44 H44        -7.0299    0.5675   65.5300 H       1  ZINC000618094467    0.1200
     45 H45        -7.1129   -1.0370   63.6722 H       1  ZINC000618094467    0.1200
     46 H46        -7.9687   -1.4583   61.4262 H       1  ZINC000618094467    0.0900
     47 H47        -9.3130   -2.3064   62.2199 H       1  ZINC000618094467    0.1000
     48 H48        -9.6057   -3.1349   56.8421 H       1  ZINC000618094467    0.0700
     49 H49       -10.5712   -3.9513   58.0984 H       1  ZINC000618094467    0.0900
     50 H50       -12.9161   -2.0906   58.3755 H       1  ZINC000618094467    0.0600
     51 H51       -13.8600   -2.7779   57.0320 H       1  ZINC000618094467    0.0600
     52 H52       -12.9487   -3.8519   58.1201 H       1  ZINC000618094467    0.0700
     53 H53       -12.0433    1.2781   55.6841 H       1  ZINC000618094467    0.0700
     54 H54       -10.9427    1.8856   56.9442 H       1  ZINC000618094467    0.0700
     55 H55       -10.3015    0.9240   55.5905 H       1  ZINC000618094467    0.0600
     56 H56        -9.9879    0.1692   58.6827 H       1  ZINC000618094467    0.1100
     57 H57        -9.2337   -0.5091   57.2169 H       1  ZINC000618094467    0.0700
@<TRIPOS>BOND
     1     1     2    1
     2     1    32    1
     3     1    33    1
     4     1    34    1
     5     2     3    1
     6     2    35    1
     7     2    36    1
     8     3     4    1
     9     3     5    1
    10     3     6    1
    11     5    37    1
    12     5    38    1
    13     5    39    1
    14     6     7    2
    15     6     8   am
    16     8    17    1
    17     8     9    1
    18     9    10    1
    19     9    40    1
    20     9    41    1
    21    10    15   ar
    22    10    11   ar
    23    11    12   ar
    24    11    42    1
    25    12    13   ar
    26    12    43    1
    27    13    14   ar
    28    13    44    1
    29    14    15   ar
    30    14    45    1
    31    15    16    1
    32    16    17    1
    33    16    46    1
    34    16    47    1
    35    17    18    1
    36    17    19    1
    37    19    20    2
    38    19    21   am
    39    21    31    1
    40    21    22    1
    41    22    23    1
    42    22    48    1
    43    22    49    1
    44    23    24    1
    45    23    25    1
    46    23    26    1
    47    25    50    1
    48    25    51    1
    49    25    52    1
    50    26    27    2
    51    26    28    1
    52    28    29    1
    53    28    30    1
    54    28    31    1
    55    30    53    1
    56    30    54    1
    57    30    55    1
    58    31    56    1
    59    31    57    1
@<TRIPOS>SUBSTRUCTURE
     1 ZINC000618094467        1 TEMP              0 ****  ****    0 ROOT


##########                                Name:    ZINC000794876634
##########                DOCK_Rotatable_Bonds:                   4
##########                         Heavy_Atoms:                  24
##########                    Molecular_Weight:             389.249
##########                DOCK_Rotatable_Bonds:                   4
##########                       Formal_Charge:        -4.47035e-08
##########                     HBond_Acceptors:                   5
##########                        HBond_Donors:                   0
##########                         Heavy_Atoms:                  24
##########                          Grid_Score:          -25.641832
##########                     Grid_vdw_energy:          -24.576681
##########                      Grid_es_energy:           -1.065151
##########           Internal_energy_repulsive:           54.587902

@<TRIPOS>MOLECULE
ZINC000794876634
 41 43 1 0 0
SMALL
USER_CHARGES


@<TRIPOS>ATOM
      1 C1         -8.5988    0.1356   54.8063 C.3     1  ZINC000794876634    0.0200
      2 O2         -9.3995   -0.7652   55.5740 O.3     1  ZINC000794876634   -0.3000
      3 C3         -9.2137   -0.7619   56.9193 C.ar    1  ZINC000794876634    0.1300
      4 C4         -9.9494   -1.6243   57.7216 C.ar    1  ZINC000794876634   -0.1800
      5 C5         -9.7663   -1.6258   59.0865 C.ar    1  ZINC000794876634   -0.0400
      6 C6        -10.5667   -2.5632   59.9535 C.3     1  ZINC000794876634   -0.1200
      7 C7         -8.8351   -0.7555   59.6686 C.ar    1  ZINC000794876634   -0.1000
      8 C8         -8.6374   -0.7546   61.1209 C.2     1  ZINC000794876634    0.0600
      9 C9         -9.3221    0.1306   61.9023 C.2     1  ZINC000794876634   -0.1700
     10 C10       -10.2926    1.1493   61.4663 C.2     1  ZINC000794876634    0.5700
     11 O11       -10.6405    1.3622   60.3192 O.2     1  ZINC000794876634   -0.4900
     12 N12       -10.7266    1.8017   62.5577 N.am    1  ZINC000794876634   -0.5300
     13 C13       -11.7056    2.8913   62.5311 C.3     1  ZINC000794876634    0.0800
     14 C14       -10.1334    1.3149   63.7122 C.ar    1  ZINC000794876634    0.3700
     15 N15       -10.2714    1.6640   64.9853 N.ar    1  ZINC000794876634   -0.4900
     16 C16        -9.6024    1.0635   65.9486 C.ar    1  ZINC000794876634    0.1800
     17 C17        -8.7180    0.0335   65.6820 C.ar    1  ZINC000794876634   -0.1800
     18 Br18       -7.7744   -0.8074   67.0886 Br      1  ZINC000794876634   -0.0200
     19 C19        -8.5329   -0.3745   64.3689 C.ar    1  ZINC000794876634    0.0000
     20 C20        -9.2570    0.2731   63.3734 C.ar    1  ZINC000794876634   -0.1400
     21 C21        -8.0930    0.1142   58.8570 C.ar    1  ZINC000794876634   -0.1400
     22 C22        -8.2802    0.1041   57.4901 C.ar    1  ZINC000794876634    0.0900
     23 O23        -7.5619    0.9459   56.6996 O.3     1  ZINC000794876634   -0.3000
     24 C24        -6.5697    1.7498   57.3411 C.3     1  ZINC000794876634    0.0200
     25 H25        -8.8465    0.0317   53.7499 H       1  ZINC000794876634    0.1000
     26 H26        -8.7947    1.1589   55.1266 H       1  ZINC000794876634    0.0600
     27 H27        -7.5446   -0.0968   54.9569 H       1  ZINC000794876634    0.0600
     28 H28       -10.6674   -2.2954   57.2738 H       1  ZINC000794876634    0.1400
     29 H29       -10.0286   -3.5047   60.0637 H       1  ZINC000794876634    0.0800
     30 H30       -10.7155   -2.1126   60.9348 H       1  ZINC000794876634    0.0700
     31 H31       -11.5349   -2.7502   59.4890 H       1  ZINC000794876634    0.0700
     32 H32        -7.9499   -1.4542   61.5727 H       1  ZINC000794876634    0.1500
     33 H33       -12.0135    3.0780   61.5023 H       1  ZINC000794876634    0.0900
     34 H34       -12.5756    2.6127   63.1259 H       1  ZINC000794876634    0.0800
     35 H35       -11.2561    3.7937   62.9454 H       1  ZINC000794876634    0.0800
     36 H36        -9.7477    1.3828   66.9701 H       1  ZINC000794876634    0.1800
     37 H37        -7.8495   -1.1751   64.1271 H       1  ZINC000794876634    0.1600
     38 H38        -7.3739    0.7872   59.3002 H       1  ZINC000794876634    0.1400
     39 H39        -7.0533    2.4432   58.0291 H       1  ZINC000794876634    0.0500
     40 H40        -5.8839    1.1080   57.8940 H       1  ZINC000794876634    0.0600
     41 H41        -6.0153    2.3113   56.5891 H       1  ZINC000794876634    0.1100
@<TRIPOS>BOND
     1     1     2    1
     2     1    25    1
     3     1    26    1
     4     1    27    1
     5     2     3    1
     6     3    22   ar
     7     3     4   ar
     8     4     5   ar
     9     4    28    1
    10     5     6    1
    11     5     7   ar
    12     6    29    1
    13     6    30    1
    14     6    31    1
    15     7     8    1
    16     7    21   ar
    17     8     9    2
    18     8    32    1
    19     9    20    1
    20     9    10    1
    21    10    11    2
    22    10    12   am
    23    12    13    1
    24    12    14    1
    25    13    33    1
    26    13    34    1
    27    13    35    1
    28    14    20   ar
    29    14    15   ar
    30    15    16   ar
    31    16    17   ar
    32    16    36    1
    33    17    18    1
    34    17    19   ar
    35    19    20   ar
    36    19    37    1
    37    21    22   ar
    38    21    38    1
    39    22    23    1
    40    23    24    1
    41    24    39    1
    42    24    40    1
    43    24    41    1
@<TRIPOS>SUBSTRUCTURE
     1 ZINC000794876634        1 TEMP              0 ****  ****    0 ROOT


##########                                Name:    ZINC000331626032
##########                DOCK_Rotatable_Bonds:                   5
##########                         Heavy_Atoms:                  25
##########                    Molecular_Weight:              339.44
##########                DOCK_Rotatable_Bonds:                   5
##########                       Formal_Charge:        -2.16067e-07
##########                     HBond_Acceptors:                   6
##########                        HBond_Donors:                   2
##########                         Heavy_Atoms:                  25
##########                          Grid_Score:          -25.592924
##########                     Grid_vdw_energy:          -25.630573
##########                      Grid_es_energy:            0.037648
##########           Internal_energy_repulsive:           52.480007

@<TRIPOS>MOLECULE
ZINC000331626032
 50 52 1 0 0
SMALL
USER_CHARGES


@<TRIPOS>ATOM
      1 C1         -8.4610   -1.3503   60.7102 C.3     1  ZINC000331626032   -0.2000
      2 C2         -9.0724   -1.6331   59.3364 C.3     1  ZINC000331626032    0.0700
      3 H3         -8.4525   -2.3548   58.8044 H       1  ZINC000331626032    0.1100
      4 C4        -10.4601   -2.1945   59.5100 C.2     1  ZINC000331626032    0.5200
      5 O5        -10.6503   -3.3871   59.3970 O.2     1  ZINC000331626032   -0.5000
      6 N6        -11.4897   -1.3715   59.7909 N.am    1  ZINC000331626032   -0.5800
      7 C7        -11.2600    0.0688   59.9274 C.3     1  ZINC000331626032    0.0800
      8 C8        -12.7782   -1.8929   59.9522 C.ar    1  ZINC000331626032    0.1400
      9 C9        -13.4274   -1.7778   61.1744 C.ar    1  ZINC000331626032   -0.1000
     10 C10       -14.6992   -2.2933   61.3303 C.ar    1  ZINC000331626032   -0.1100
     11 C11       -15.3258   -2.9242   60.2713 C.ar    1  ZINC000331626032   -0.1200
     12 C12       -14.6818   -3.0408   59.0532 C.ar    1  ZINC000331626032   -0.1100
     13 C13       -13.4127   -2.5213   58.8888 C.ar    1  ZINC000331626032   -0.1200
     14 N14        -9.1421   -0.3848   58.5651 N.3     1  ZINC000331626032   -0.5100
     15 C15        -7.8370    0.2875   58.5330 C.3     1  ZINC000331626032    0.0500
     16 C16        -7.9797    1.6490   57.8491 C.3     1  ZINC000331626032   -0.1100
     17 C17        -8.5057    1.4470   56.4253 C.3     1  ZINC000331626032   -0.1100
     18 C18        -9.8422    0.7020   56.4845 C.3     1  ZINC000331626032   -0.0400
     19 H19       -10.5715    1.3052   57.0252 H       1  ZINC000331626032    0.1000
     20 C20       -10.3388    0.4476   55.0845 C.ar    1  ZINC000331626032    0.2300
     21 C21       -11.6230    0.8176   54.7179 C.ar    1  ZINC000331626032   -0.2900
     22 C22       -12.0404    0.5654   53.4203 C.ar    1  ZINC000331626032    0.1900
     23 N23       -11.2057   -0.0173   52.5758 N.ar    1  ZINC000331626032   -0.5700
     24 C24        -9.9838   -0.3587   52.9583 C.ar    1  ZINC000331626032    0.5700
     25 N25        -9.1362   -0.9665   52.0485 N.pl3   1  ZINC000331626032   -0.8200
     26 N26        -9.5523   -0.1268   54.1892 N.ar    1  ZINC000331626032   -0.5700
     27 C27        -9.6455   -0.6321   57.2079 C.3     1  ZINC000331626032    0.0700
     28 H28        -9.0809   -0.6287   61.2421 H       1  ZINC000331626032    0.0700
     29 H29        -8.4093   -2.2765   61.2825 H       1  ZINC000331626032    0.0800
     30 H30        -7.4573   -0.9443   60.5846 H       1  ZINC000331626032    0.0700
     31 H31       -11.3786    0.5494   58.9563 H       1  ZINC000331626032    0.0600
     32 H32       -11.9809    0.4868   60.6302 H       1  ZINC000331626032    0.0800
     33 H33       -10.2494    0.2422   60.2974 H       1  ZINC000331626032    0.0800
     34 H34       -12.9383   -1.2858   62.0022 H       1  ZINC000331626032    0.1200
     35 H35       -15.2046   -2.2042   62.2806 H       1  ZINC000331626032    0.1300
     36 H36       -16.3202   -3.3268   60.3959 H       1  ZINC000331626032    0.1300
     37 H37       -15.1736   -3.5346   58.2281 H       1  ZINC000331626032    0.1300
     38 H38       -12.9102   -2.6128   57.9372 H       1  ZINC000331626032    0.1200
     39 H39        -7.4761    0.4289   59.5518 H       1  ZINC000331626032    0.0900
     40 H40        -7.1264   -0.3250   57.9779 H       1  ZINC000331626032    0.0300
     41 H41        -8.6796    2.2672   58.4113 H       1  ZINC000331626032    0.0800
     42 H42        -7.0078    2.1411   57.8114 H       1  ZINC000331626032    0.0700
     43 H43        -8.6500    2.4167   55.9492 H       1  ZINC000331626032    0.0700
     44 H44        -7.7875    0.8615   55.8513 H       1  ZINC000331626032    0.0700
     45 H45       -12.2844    1.2918   55.4279 H       1  ZINC000331626032    0.1400
     46 H46       -13.0352    0.8411   53.1027 H       1  ZINC000331626032    0.1700
     47 H47        -9.4389   -1.1377   51.1430 H       1  ZINC000331626032    0.4100
     48 H48        -8.2394   -1.2211   52.3163 H       1  ZINC000331626032    0.4100
     49 H49        -8.9265   -1.2404   56.6591 H       1  ZINC000331626032    0.0400
     50 H50       -10.5982   -1.1587   57.2643 H       1  ZINC000331626032    0.0800
@<TRIPOS>BOND
     1     1     2    1
     2     1    28    1
     3     1    29    1
     4     1    30    1
     5     2     3    1
     6     2     4    1
     7     2    14    1
     8     4     5    2
     9     4     6   am
    10     6     7    1
    11     6     8    1
    12     7    31    1
    13     7    32    1
    14     7    33    1
    15     8    13   ar
    16     8     9   ar
    17     9    10   ar
    18     9    34    1
    19    10    11   ar
    20    10    35    1
    21    11    12   ar
    22    11    36    1
    23    12    13   ar
    24    12    37    1
    25    13    38    1
    26    14    27    1
    27    14    15    1
    28    15    16    1
    29    15    39    1
    30    15    40    1
    31    16    17    1
    32    16    41    1
    33    16    42    1
    34    17    18    1
    35    17    43    1
    36    17    44    1
    37    18    19    1
    38    18    20    1
    39    18    27    1
    40    20    26   ar
    41    20    21   ar
    42    21    22   ar
    43    21    45    1
    44    22    23   ar
    45    22    46    1
    46    23    24   ar
    47    24    25    1
    48    24    26   ar
    49    25    47    1
    50    25    48    1
    51    27    49    1
    52    27    50    1
@<TRIPOS>SUBSTRUCTURE
     1 ZINC000331626032        1 TEMP              0 ****  ****    0 ROOT


##########                                Name:    ZINC000800038938
##########                DOCK_Rotatable_Bonds:                   6
##########                         Heavy_Atoms:                  25
##########                    Molecular_Weight:             386.274
##########                DOCK_Rotatable_Bonds:                   6
##########                       Formal_Charge:           0.0200003
##########                     HBond_Acceptors:                   7
##########                        HBond_Donors:                   0
##########                         Heavy_Atoms:                  25
##########                          Grid_Score:          -25.561462
##########                     Grid_vdw_energy:          -25.176868
##########                      Grid_es_energy:           -0.384593
##########           Internal_energy_repulsive:           11.474401

@<TRIPOS>MOLECULE
ZINC000800038938
 46 48 1 0 0
SMALL
USER_CHARGES


@<TRIPOS>ATOM
      1 C1          5.4884   -1.6040   43.5245 C.3     1  ZINC000800038938    0.0300
      2 O2          4.5922   -1.2733   44.5874 O.3     1  ZINC000800038938   -0.3800
      3 C3          3.7460   -0.1561   44.3078 C.3     1  ZINC000800038938    0.0900
      4 H4          3.1889   -0.3313   43.3875 H       1  ZINC000800038938    0.0700
      5 C5          4.5914    1.1276   44.1777 C.3     1  ZINC000800038938   -0.1400
      6 C6          3.7122    2.2283   44.8212 C.3     1  ZINC000800038938   -0.1400
      7 C7          3.0624    1.4904   46.0181 C.3     1  ZINC000800038938    0.0900
      8 H8          3.7542    1.4442   46.8590 H       1  ZINC000800038938    0.0900
      9 O9          1.8292    2.1481   46.4117 O.3     1  ZINC000800038938   -0.3500
     10 C10         1.6341    2.3412   47.7257 C.2     1  ZINC000800038938    0.4500
     11 O11         1.3518    3.4408   48.1393 O.2     1  ZINC000800038938   -0.4800
     12 C12         1.7673    1.1867   48.6849 C.3     1  ZINC000800038938    0.1500
     13 H13         1.7704    0.2459   48.1343 H       1  ZINC000800038938    0.1200
     14 C14         3.0737    1.3252   49.4948 C.3     1  ZINC000800038938   -0.1200
     15 C15         2.6578    0.8440   50.9101 C.3     1  ZINC000800038938   -0.1300
     16 C16         1.2041    1.3711   51.0031 C.3     1  ZINC000800038938    0.0900
     17 N17         0.6523    1.2015   49.6431 N.am    1  ZINC000800038938   -0.6000
     18 C18        -0.6545    1.0837   49.3346 C.2     1  ZINC000800038938    0.5800
     19 O19        -1.4918    1.1131   50.2153 O.2     1  ZINC000800038938   -0.4900
     20 C20        -1.0691    0.9186   47.9259 C.ar    1  ZINC000800038938   -0.1100
     21 C21        -1.5213    2.0181   47.1947 C.ar    1  ZINC000800038938   -0.0700
     22 C22        -1.9072    1.8568   45.8791 C.ar    1  ZINC000800038938   -0.0400
     23 Cl23       -2.4694    3.2233   44.9678 Cl      1  ZINC000800038938   -0.0500
     24 C24        -1.8465    0.6075   45.2844 C.ar    1  ZINC000800038938   -0.0700
     25 C25        -1.3998   -0.4863   46.0031 C.ar    1  ZINC000800038938   -0.1000
     26 C26        -1.0048   -0.3380   47.3181 C.ar    1  ZINC000800038938    0.0100
     27 Cl27       -0.4445   -1.7124   48.2186 Cl      1  ZINC000800038938   -0.0300
     28 C28         2.7730    0.0737   45.4774 C.3     1  ZINC000800038938   -0.1200
     29 H29         6.0954   -2.4616   43.8147 H       1  ZINC000800038938    0.0900
     30 H30         4.9162   -1.8498   42.6300 H       1  ZINC000800038938    0.0400
     31 H31         6.1372   -0.7527   43.3183 H       1  ZINC000800038938    0.0400
     32 H32         5.5304    1.0228   44.7214 H       1  ZINC000800038938    0.0800
     33 H33         4.7804    1.3552   43.1285 H       1  ZINC000800038938    0.0800
     34 H34         4.3261    3.0599   45.1674 H       1  ZINC000800038938    0.0800
     35 H35         2.9515    2.5736   44.1212 H       1  ZINC000800038938    0.0800
     36 H36         3.8527    0.6837   49.0828 H       1  ZINC000800038938    0.1000
     37 H37         3.4023    2.3641   49.5218 H       1  ZINC000800038938    0.0900
     38 H38         2.6840   -0.2437   50.9763 H       1  ZINC000800038938    0.0900
     39 H39         3.2870    1.2958   51.6769 H       1  ZINC000800038938    0.1000
     40 H40         0.6320    0.7815   51.7194 H       1  ZINC000800038938    0.0900
     41 H41         1.1995    2.4235   51.2871 H       1  ZINC000800038938    0.0800
     42 H42        -1.5696    2.9928   47.6572 H       1  ZINC000800038938    0.1500
     43 H43        -2.1495    0.4870   44.2548 H       1  ZINC000800038938    0.1500
     44 H44        -1.3552   -1.4579   45.5333 H       1  ZINC000800038938    0.1500
     45 H45         1.7432    0.0115   45.1255 H       1  ZINC000800038938    0.0900
     46 H46         2.9464   -0.6666   46.2584 H       1  ZINC000800038938    0.0900
@<TRIPOS>BOND
     1     1     2    1
     2     1    29    1
     3     1    30    1
     4     1    31    1
     5     2     3    1
     6     3     4    1
     7     3    28    1
     8     3     5    1
     9     5     6    1
    10     5    32    1
    11     5    33    1
    12     6     7    1
    13     6    34    1
    14     6    35    1
    15     7     8    1
    16     7     9    1
    17     7    28    1
    18     9    10    1
    19    10    11    2
    20    10    12    1
    21    12    13    1
    22    12    17    1
    23    12    14    1
    24    14    15    1
    25    14    36    1
    26    14    37    1
    27    15    16    1
    28    15    38    1
    29    15    39    1
    30    16    17    1
    31    16    40    1
    32    16    41    1
    33    17    18   am
    34    18    19    2
    35    18    20    1
    36    20    26   ar
    37    20    21   ar
    38    21    22   ar
    39    21    42    1
    40    22    23    1
    41    22    24   ar
    42    24    25   ar
    43    24    43    1
    44    25    26   ar
    45    25    44    1
    46    26    27    1
    47    28    45    1
    48    28    46    1
@<TRIPOS>SUBSTRUCTURE
     1 ZINC000800038938        1 TEMP              0 ****  ****    0 ROOT


##########                                Name:    ZINC000422507946
##########                DOCK_Rotatable_Bonds:                   7
##########                         Heavy_Atoms:                  25
##########                    Molecular_Weight:             364.484
##########                DOCK_Rotatable_Bonds:                   7
##########                       Formal_Charge:          0.00999952
##########                     HBond_Acceptors:                   6
##########                        HBond_Donors:                   1
##########                         Heavy_Atoms:                  25
##########                          Grid_Score:          -25.520161
##########                     Grid_vdw_energy:          -24.319309
##########                      Grid_es_energy:           -1.200851
##########           Internal_energy_repulsive:           33.376575

@<TRIPOS>MOLECULE
ZINC000422507946
 50 52 1 0 0
SMALL
USER_CHARGES


@<TRIPOS>ATOM
      1 C1         -9.6048    0.4319   52.4555 C.3     1  ZINC000422507946   -0.1400
      2 C2         -8.5783    0.1413   53.5521 C.3     1  ZINC000422507946   -0.0400
      3 H3         -8.1278   -0.8395   53.3996 H       1  ZINC000422507946    0.1100
      4 C4         -9.2412    0.2180   54.9432 C.3     1  ZINC000422507946   -0.1400
      5 C5         -8.2137    0.7510   55.9568 C.3     1  ZINC000422507946    0.1400
      6 H6         -7.4620   -0.0114   56.1608 H       1  ZINC000422507946    0.1100
      7 N7         -8.8887    1.1331   57.1997 N.am    1  ZINC000422507946   -0.6900
      8 C8         -8.4048    0.7138   58.3857 C.2     1  ZINC000422507946    0.5100
      9 O9         -7.4093    0.0211   58.4241 O.2     1  ZINC000422507946   -0.5000
     10 C10        -9.0944    1.1022   59.6534 C.2     1  ZINC000422507946    0.5100
     11 O11        -8.8922    2.1933   60.1444 O.2     1  ZINC000422507946   -0.5200
     12 N12        -9.9409    0.2405   60.2513 N.am    1  ZINC000422507946   -0.5700
     13 C13       -10.6169    0.6212   61.4940 C.3     1  ZINC000422507946    0.1400
     14 C14        -9.6733    0.4399   62.6550 C.ar    1  ZINC000422507946   -0.0800
     15 C15        -8.5234   -0.3111   62.4999 C.ar    1  ZINC000422507946   -0.1100
     16 C16        -7.6567   -0.4783   63.5641 C.ar    1  ZINC000422507946   -0.0900
     17 C17        -7.9394    0.1054   64.7842 C.ar    1  ZINC000422507946   -0.1500
     18 C18        -9.0910    0.8584   64.9407 C.ar    1  ZINC000422507946    0.1000
     19 F19        -9.3684    1.4295   66.1332 F       1  ZINC000422507946   -0.1400
     20 C20        -9.9553    1.0294   63.8729 C.ar    1  ZINC000422507946   -0.1500
     21 C21       -10.1850   -1.0768   59.6585 C.3     1  ZINC000422507946    0.1400
     22 C22       -10.8598   -2.0038   60.6905 C.3     1  ZINC000422507946   -0.1200
     23 C23       -12.3721   -1.8828   60.3783 C.3     1  ZINC000422507946   -0.1300
     24 C24       -12.3965   -1.8044   58.8316 C.3     1  ZINC000422507946   -0.1200
     25 C25       -11.1622   -0.9500   58.4765 C.3     1  ZINC000422507946   -0.1600
     26 C26        -7.5464    1.9939   55.3114 C.3     1  ZINC000422507946   -0.0900
     27 S27        -7.2876    1.4396   53.5785 S.3     1  ZINC000422507946   -0.2700
     28 H28        -9.1150    0.4021   51.4822 H       1  ZINC000422507946    0.0700
     29 H29       -10.3940   -0.3192   52.4881 H       1  ZINC000422507946    0.0700
     30 H30       -10.0368    1.4199   52.6147 H       1  ZINC000422507946    0.0700
     31 H31       -10.0983    0.8902   54.9034 H       1  ZINC000422507946    0.0900
     32 H32        -9.5724   -0.7753   55.2459 H       1  ZINC000422507946    0.0900
     33 H33        -9.6838    1.6879   57.1689 H       1  ZINC000422507946    0.4100
     34 H34       -10.9242    1.6654   61.4353 H       1  ZINC000422507946    0.1100
     35 H35       -11.4949   -0.0085   61.6377 H       1  ZINC000422507946    0.1000
     36 H36        -8.3018   -0.7680   61.5466 H       1  ZINC000422507946    0.1400
     37 H37        -6.7587   -1.0656   63.4418 H       1  ZINC000422507946    0.1300
     38 H38        -7.2627   -0.0259   65.6155 H       1  ZINC000422507946    0.1400
     39 H39       -10.8536    1.6168   63.9937 H       1  ZINC000422507946    0.1400
     40 H40        -9.2454   -1.5140   59.3209 H       1  ZINC000422507946    0.1100
     41 H41       -10.5237   -3.0321   60.5569 H       1  ZINC000422507946    0.0800
     42 H42       -10.6511   -1.6620   61.7043 H       1  ZINC000422507946    0.0600
     43 H43       -12.9106   -2.7633   60.7290 H       1  ZINC000422507946    0.0700
     44 H44       -12.7858   -0.9752   60.8177 H       1  ZINC000422507946    0.0600
     45 H45       -12.3086   -2.8004   58.3977 H       1  ZINC000422507946    0.0700
     46 H46       -13.3093   -1.3171   58.4887 H       1  ZINC000422507946    0.0700
     47 H47       -11.4546    0.0916   58.3440 H       1  ZINC000422507946    0.0900
     48 H48       -10.6970   -1.3263   57.5655 H       1  ZINC000422507946    0.0800
     49 H49        -8.2129    2.8556   55.3488 H       1  ZINC000422507946    0.1000
     50 H50        -6.5943    2.2171   55.7929 H       1  ZINC000422507946    0.1100
@<TRIPOS>BOND
     1     1     2    1
     2     1    28    1
     3     1    29    1
     4     1    30    1
     5     2     3    1
     6     2    27    1
     7     2     4    1
     8     4     5    1
     9     4    31    1
    10     4    32    1
    11     5     6    1
    12     5     7    1
    13     5    26    1
    14     7     8   am
    15     7    33    1
    16     8     9    2
    17     8    10    1
    18    10    11    2
    19    10    12   am
    20    12    13    1
    21    12    21    1
    22    13    14    1
    23    13    34    1
    24    13    35    1
    25    14    20   ar
    26    14    15   ar
    27    15    16   ar
    28    15    36    1
    29    16    17   ar
    30    16    37    1
    31    17    18   ar
    32    17    38    1
    33    18    19    1
    34    18    20   ar
    35    20    39    1
    36    21    25    1
    37    21    22    1
    38    21    40    1
    39    22    23    1
    40    22    41    1
    41    22    42    1
    42    23    24    1
    43    23    43    1
    44    23    44    1
    45    24    25    1
    46    24    45    1
    47    24    46    1
    48    25    47    1
    49    25    48    1
    50    26    27    1
    51    26    49    1
    52    26    50    1
@<TRIPOS>SUBSTRUCTURE
     1 ZINC000422507946        1 TEMP              0 ****  ****    0 ROOT


##########                                Name:    ZINC001076281847
##########                DOCK_Rotatable_Bonds:                   4
##########                         Heavy_Atoms:                  24
##########                    Molecular_Weight:             362.883
##########                DOCK_Rotatable_Bonds:                   4
##########                       Formal_Charge:         -0.00999959
##########                     HBond_Acceptors:                   7
##########                        HBond_Donors:                   0
##########                         Heavy_Atoms:                  24
##########                          Grid_Score:          -25.487661
##########                     Grid_vdw_energy:          -25.074232
##########                      Grid_es_energy:           -0.413429
##########           Internal_energy_repulsive:            7.332232

@<TRIPOS>MOLECULE
ZINC001076281847
 43 46 1 0 0
SMALL
USER_CHARGES


@<TRIPOS>ATOM
      1 C1         -7.1454   -0.4168   52.1928 C.3     1  ZINC001076281847   -0.0900
      2 C2         -6.3465    0.8609   52.2151 C.2     1  ZINC001076281847    0.1400
      3 N3         -6.7136    1.8808   52.9340 N.2     1  ZINC001076281847   -0.4600
      4 S4         -5.5653    3.1047   52.6889 S.3     1  ZINC001076281847    0.2500
      5 C5         -4.5863    2.2045   51.5975 C.2     1  ZINC001076281847   -0.2100
      6 C6         -3.3192    2.6599   50.9206 C.3     1  ZINC001076281847    0.1200
      7 N7         -3.5785    2.8770   49.4911 N.3     1  ZINC001076281847   -0.5000
      8 C8         -3.5708    1.6035   48.7545 C.3     1  ZINC001076281847    0.0300
      9 C9         -2.8738    1.8726   47.4074 C.3     1  ZINC001076281847   -0.1000
     10 H10        -3.5691    2.0725   46.5921 H       1  ZINC001076281847    0.1200
     11 C11        -1.9051    0.6960   47.1182 C.3     1  ZINC001076281847   -0.1300
     12 C12        -0.7538    0.9827   48.1134 C.3     1  ZINC001076281847    0.1000
     13 N13        -0.6234    2.4509   48.1259 N.am    1  ZINC001076281847   -0.6000
     14 C14         0.4903    3.1367   48.4510 C.2     1  ZINC001076281847    0.5700
     15 O15         0.4844    4.3517   48.4270 O.2     1  ZINC001076281847   -0.4900
     16 C16         1.7210    2.4098   48.8377 C.ar    1  ZINC001076281847   -0.0800
     17 C17         2.7551    2.2077   47.9186 C.ar    1  ZINC001076281847   -0.1800
     18 C18         3.8860    1.5246   48.3219 C.ar    1  ZINC001076281847    0.1000
     19 N19         3.9980    1.0663   49.5527 N.ar    1  ZINC001076281847   -0.4500
     20 C20         3.0485    1.2341   50.4510 C.ar    1  ZINC001076281847    0.1100
     21 C21         1.8843    1.9110   50.1352 C.ar    1  ZINC001076281847   -0.0500
     22 Cl22        0.6396    2.1272   51.3260 Cl      1  ZINC001076281847   -0.0100
     23 C23        -1.9221    3.0588   47.7200 C.3     1  ZINC001076281847    0.1000
     24 H24        -1.7987    3.7207   46.8627 H       1  ZINC001076281847    0.1100
     25 C25        -2.5776    3.7810   48.9052 C.3     1  ZINC001076281847    0.0200
     26 C26        -5.1899    1.0013   51.4791 C.2     1  ZINC001076281847   -0.1800
     27 H27        -6.7373   -1.1132   52.9253 H       1  ZINC001076281847    0.0700
     28 H28        -8.1851   -0.1996   52.4378 H       1  ZINC001076281847    0.0800
     29 H29        -7.0917   -0.8617   51.1992 H       1  ZINC001076281847    0.0900
     30 H30        -2.9797    3.5912   51.3739 H       1  ZINC001076281847    0.1000
     31 H31        -2.5499    1.8969   51.0385 H       1  ZINC001076281847    0.1000
     32 H32        -3.0176    0.8511   49.3166 H       1  ZINC001076281847    0.0600
     33 H33        -4.5929    1.2652   48.5842 H       1  ZINC001076281847    0.0900
     34 H34        -2.3787   -0.2615   47.3349 H       1  ZINC001076281847    0.0900
     35 H35        -1.5481    0.7286   46.0888 H       1  ZINC001076281847    0.0800
     36 H36        -1.0112    0.6162   49.1071 H       1  ZINC001076281847    0.0800
     37 H37         0.1712    0.5225   47.7662 H       1  ZINC001076281847    0.0800
     38 H38         2.6708    2.5797   46.9082 H       1  ZINC001076281847    0.1800
     39 H39         4.6897    1.3635   47.6186 H       1  ZINC001076281847    0.1700
     40 H40         3.1829    0.8416   51.4481 H       1  ZINC001076281847    0.1700
     41 H41        -3.0471    4.7027   48.5613 H       1  ZINC001076281847    0.1000
     42 H42        -1.8246    4.0102   49.6593 H       1  ZINC001076281847    0.0700
     43 H43        -4.8001    0.2136   50.8515 H       1  ZINC001076281847    0.1400
@<TRIPOS>BOND
     1     1     2    1
     2     1    27    1
     3     1    28    1
     4     1    29    1
     5     2    26    1
     6     2     3    2
     7     3     4    1
     8     4     5    1
     9     5     6    1
    10     5    26    2
    11     6     7    1
    12     6    30    1
    13     6    31    1
    14     7    25    1
    15     7     8    1
    16     8     9    1
    17     8    32    1
    18     8    33    1
    19     9    10    1
    20     9    23    1
    21     9    11    1
    22    11    12    1
    23    11    34    1
    24    11    35    1
    25    12    13    1
    26    12    36    1
    27    12    37    1
    28    13    14   am
    29    13    23    1
    30    14    15    2
    31    14    16    1
    32    16    21   ar
    33    16    17   ar
    34    17    18   ar
    35    17    38    1
    36    18    19   ar
    37    18    39    1
    38    19    20   ar
    39    20    21   ar
    40    20    40    1
    41    21    22    1
    42    23    24    1
    43    23    25    1
    44    25    41    1
    45    25    42    1
    46    26    43    1
@<TRIPOS>SUBSTRUCTURE
     1 ZINC001076281847        1 TEMP              0 ****  ****    0 ROOT


##########                                Name:    ZINC000002873519
##########                DOCK_Rotatable_Bonds:                   5
##########                         Heavy_Atoms:                  25
##########                    Molecular_Weight:             375.207
##########                DOCK_Rotatable_Bonds:                   5
##########                       Formal_Charge:               -0.02
##########                     HBond_Acceptors:                   6
##########                        HBond_Donors:                   0
##########                         Heavy_Atoms:                  25
##########                          Grid_Score:          -25.442745
##########                     Grid_vdw_energy:          -25.455404
##########                      Grid_es_energy:            0.012659
##########           Internal_energy_repulsive:            7.914466

@<TRIPOS>MOLECULE
ZINC000002873519
 37 39 1 0 0
SMALL
USER_CHARGES


@<TRIPOS>ATOM
      1 C1        -14.7401   -2.0122   61.8977 C.3     1  ZINC000002873519   -0.1500
      2 C2        -14.2086   -0.6681   61.4709 C.2     1  ZINC000002873519    0.4500
      3 O3        -14.4221    0.3090   62.1487 O.2     1  ZINC000002873519   -0.4800
      4 O4        -13.4974   -0.5565   60.3372 O.3     1  ZINC000002873519   -0.2900
      5 C5        -13.5973   -1.5740   59.4445 C.ar    1  ZINC000002873519    0.1200
      6 C6        -14.7486   -1.7275   58.6903 C.ar    1  ZINC000002873519   -0.1100
      7 C7        -14.8499   -2.7633   57.7809 C.ar    1  ZINC000002873519   -0.0800
      8 C8        -13.8031   -3.6577   57.6140 C.ar    1  ZINC000002873519   -0.0400
      9 Cl9       -13.9478   -4.9524   56.4666 Cl      1  ZINC000002873519   -0.0500
     10 C10       -12.6484   -3.5233   58.3544 C.ar    1  ZINC000002873519   -0.0800
     11 C11       -12.5294   -2.4745   59.2766 C.ar    1  ZINC000002873519   -0.0700
     12 C12       -11.3070   -2.3233   60.0670 C.2     1  ZINC000002873519    0.0400
     13 C13       -10.2361   -1.6174   59.5545 C.2     1  ZINC000002873519   -0.1900
     14 C14       -10.1391   -0.9454   58.2472 C.2     1  ZINC000002873519   -0.2000
     15 C15        -8.9094   -0.3919   58.1918 C.2     1  ZINC000002873519    0.1200
     16 C16        -8.3950    0.3822   57.0447 C.ar    1  ZINC000002873519   -0.0400
     17 C17        -7.1430    0.9972   57.1184 C.ar    1  ZINC000002873519   -0.0800
     18 C18        -6.6683    1.7189   56.0435 C.ar    1  ZINC000002873519   -0.1100
     19 C19        -7.4301    1.8349   54.8927 C.ar    1  ZINC000002873519   -0.0200
     20 Cl20       -6.8253    2.7451   53.5439 Cl      1  ZINC000002873519   -0.0600
     21 C21        -8.6722    1.2275   54.8132 C.ar    1  ZINC000002873519   -0.1100
     22 C22        -9.1557    0.4978   55.8789 C.ar    1  ZINC000002873519   -0.0800
     23 O23        -8.2114   -0.6362   59.3190 O.3     1  ZINC000002873519   -0.2600
     24 C24        -8.9322   -1.3596   60.1947 C.2     1  ZINC000002873519    0.5200
     25 O25        -8.5753   -1.7351   61.2956 O.2     1  ZINC000002873519   -0.4200
     26 H26       -15.7337   -2.1608   61.4750 H       1  ZINC000002873519    0.1100
     27 H27       -14.0725   -2.7967   61.5415 H       1  ZINC000002873519    0.1000
     28 H28       -14.7984   -2.0511   62.9855 H       1  ZINC000002873519    0.1100
     29 H29       -15.5693   -1.0363   58.8133 H       1  ZINC000002873519    0.1500
     30 H30       -15.7508   -2.8772   57.1963 H       1  ZINC000002873519    0.1500
     31 H31       -11.8359   -4.2222   58.2216 H       1  ZINC000002873519    0.1500
     32 H32       -11.2422   -2.7638   61.0509 H       1  ZINC000002873519    0.1500
     33 H33       -10.9014   -0.9043   57.4832 H       1  ZINC000002873519    0.1700
     34 H34        -6.5483    0.9080   58.0156 H       1  ZINC000002873519    0.1400
     35 H35        -5.7004    2.1949   56.0993 H       1  ZINC000002873519    0.1400
     36 H36        -9.2616    1.3220   53.9132 H       1  ZINC000002873519    0.1400
     37 H37       -10.1245    0.0246   55.8157 H       1  ZINC000002873519    0.1400
@<TRIPOS>BOND
     1     1     2    1
     2     1    26    1
     3     1    27    1
     4     1    28    1
     5     2     3    2
     6     2     4    1
     7     4     5    1
     8     5    11   ar
     9     5     6   ar
    10     6     7   ar
    11     6    29    1
    12     7     8   ar
    13     7    30    1
    14     8     9    1
    15     8    10   ar
    16    10    11   ar
    17    10    31    1
    18    11    12    1
    19    12    13    2
    20    12    32    1
    21    13    24    1
    22    13    14    1
    23    14    15    2
    24    14    33    1
    25    15    16    1
    26    15    23    1
    27    16    22   ar
    28    16    17   ar
    29    17    18   ar
    30    17    34    1
    31    18    19   ar
    32    18    35    1
    33    19    20    1
    34    19    21   ar
    35    21    22   ar
    36    21    36    1
    37    22    37    1
    38    23    24    1
    39    24    25    2
@<TRIPOS>SUBSTRUCTURE
     1 ZINC000002873519        1 TEMP              0 ****  ****    0 ROOT


##########                                Name:    ZINC000573650873
##########                DOCK_Rotatable_Bonds:                  10
##########                         Heavy_Atoms:                  28
##########                    Molecular_Weight:             418.843
##########                DOCK_Rotatable_Bonds:                  10
##########                       Formal_Charge:          -0.0500001
##########                     HBond_Acceptors:                   9
##########                        HBond_Donors:                   1
##########                         Heavy_Atoms:                  28
##########                          Grid_Score:          -25.348814
##########                     Grid_vdw_energy:          -22.850988
##########                      Grid_es_energy:           -2.497826
##########           Internal_energy_repulsive:          124.057304

@<TRIPOS>MOLECULE
ZINC000573650873
 50 51 1 0 0
SMALL
USER_CHARGES


@<TRIPOS>ATOM
      1 C1          1.7298    3.1418   56.5947 C.3     1  ZINC000573650873   -0.1400
      2 C2          0.2183    3.2824   56.7853 C.3     1  ZINC000573650873    0.0100
      3 C3         -0.3752    1.9266   57.1730 C.3     1  ZINC000573650873   -0.1400
      4 C4         -0.0636    4.2983   57.8942 C.3     1  ZINC000573650873   -0.1500
      5 C5         -0.4085    3.7558   55.4992 C.2     1  ZINC000573650873   -0.0100
      6 C6          0.1067    3.6282   54.2544 C.2     1  ZINC000573650873   -0.1800
      7 C7         -0.8703    4.2336   53.4159 C.2     1  ZINC000573650873   -0.0300
      8 C8         -0.8159    4.3720   51.9402 C.2     1  ZINC000573650873    0.6000
      9 O9         -0.1307    5.2396   51.4362 O.2     1  ZINC000573650873   -0.5100
     10 N10        -1.5266    3.5354   51.1582 N.am    1  ZINC000573650873   -0.5900
     11 C11        -1.4730    3.6721   49.7005 C.3     1  ZINC000573650873    0.1200
     12 C12        -0.3287    2.8185   49.1501 C.3     1  ZINC000573650873   -0.1000
     13 C13        -0.7850    2.1134   47.8988 C.ar    1  ZINC000573650873   -0.0800
     14 C14        -1.2350    2.8474   46.8172 C.ar    1  ZINC000573650873   -0.1000
     15 C15        -1.6536    2.2014   45.6692 C.ar    1  ZINC000573650873   -0.1100
     16 C16        -1.6222    0.8199   45.6028 C.ar    1  ZINC000573650873   -0.0400
     17 Cl17       -2.1472    0.0077   44.1611 Cl      1  ZINC000573650873   -0.0700
     18 C18        -1.1717    0.0858   46.6856 C.ar    1  ZINC000573650873   -0.1100
     19 C19        -0.7481    0.7333   47.8309 C.ar    1  ZINC000573650873   -0.1000
     20 C20        -2.3529    2.4894   51.7658 C.3     1  ZINC000573650873    0.0700
     21 C21        -3.8088    2.9569   51.8206 C.3     1  ZINC000573650873    0.0600
     22 H22        -4.3892    2.4270   51.0655 H       1  ZINC000573650873    0.1400
     23 O23        -4.3485    2.6831   53.1152 O.3     1  ZINC000573650873   -0.5200
     24 C24        -3.8718    4.4614   51.5495 C.3     1  ZINC000573650873    0.4300
     25 F25        -5.2028    4.8892   51.6008 F       1  ZINC000573650873   -0.1700
     26 F26        -3.1258    5.1413   52.5180 F       1  ZINC000573650873   -0.1700
     27 F27        -3.3444    4.7292   50.2816 F       1  ZINC000573650873   -0.1800
     28 N28        -1.8277    4.6435   54.2102 N.2     1  ZINC000573650873   -0.3400
     29 O29        -1.5869    4.3799   55.3654 O.3     1  ZINC000573650873    0.1300
     30 H30         1.9306    2.4180   55.8047 H       1  ZINC000573650873    0.0600
     31 H31         2.1526    4.1078   56.3185 H       1  ZINC000573650873    0.0600
     32 H32         2.1831    2.7995   57.5250 H       1  ZINC000573650873    0.0700
     33 H33         0.0781    1.5842   58.1033 H       1  ZINC000573650873    0.0700
     34 H34        -1.4520    2.0268   57.3089 H       1  ZINC000573650873    0.0600
     35 H35        -0.1744    1.2028   56.3831 H       1  ZINC000573650873    0.0600
     36 H36         0.3592    5.2643   57.6180 H       1  ZINC000573650873    0.0600
     37 H37        -1.1404    4.3986   58.0300 H       1  ZINC000573650873    0.0600
     38 H38         0.3898    3.9559   58.8244 H       1  ZINC000573650873    0.0700
     39 H39         1.0422    3.1728   53.9648 H       1  ZINC000573650873    0.1800
     40 H40        -2.4162    3.3371   49.2692 H       1  ZINC000573650873    0.0900
     41 H41        -1.3048    4.7170   49.4396 H       1  ZINC000573650873    0.1000
     42 H42         0.5223    3.4585   48.9167 H       1  ZINC000573650873    0.0800
     43 H43        -0.0345    2.0805   49.8963 H       1  ZINC000573650873    0.0800
     44 H44        -1.2598    3.9260   46.8694 H       1  ZINC000573650873    0.1300
     45 H45        -2.0055    2.7749   44.8245 H       1  ZINC000573650873    0.1300
     46 H46        -1.1472   -0.9927   46.6344 H       1  ZINC000573650873    0.1300
     47 H47        -0.3961    0.1603   48.6761 H       1  ZINC000573650873    0.1300
     48 H48        -2.2855    1.5802   51.1684 H       1  ZINC000573650873    0.1000
     49 H49        -1.9980    2.2872   52.7764 H       1  ZINC000573650873    0.1200
     50 H50        -4.3404    1.7461   53.3545 H       1  ZINC000573650873    0.3900
@<TRIPOS>BOND
     1     1     2    1
     2     1    30    1
     3     1    31    1
     4     1    32    1
     5     2     3    1
     6     2     4    1
     7     2     5    1
     8     3    33    1
     9     3    34    1
    10     3    35    1
    11     4    36    1
    12     4    37    1
    13     4    38    1
    14     5    29    1
    15     5     6    2
    16     6     7    1
    17     6    39    1
    18     7     8    1
    19     7    28    2
    20     8     9    2
    21     8    10   am
    22    10    11    1
    23    10    20    1
    24    11    12    1
    25    11    40    1
    26    11    41    1
    27    12    13    1
    28    12    42    1
    29    12    43    1
    30    13    19   ar
    31    13    14   ar
    32    14    15   ar
    33    14    44    1
    34    15    16   ar
    35    15    45    1
    36    16    17    1
    37    16    18   ar
    38    18    19   ar
    39    18    46    1
    40    19    47    1
    41    20    21    1
    42    20    48    1
    43    20    49    1
    44    21    22    1
    45    21    23    1
    46    21    24    1
    47    23    50    1
    48    24    25    1
    49    24    26    1
    50    24    27    1
    51    28    29    1
@<TRIPOS>SUBSTRUCTURE
     1 ZINC000573650873        1 TEMP              0 ****  ****    0 ROOT


##########                                Name:    ZINC000530457945
##########                DOCK_Rotatable_Bonds:                   4
##########                         Heavy_Atoms:                  25
##########                    Molecular_Weight:             355.827
##########                DOCK_Rotatable_Bonds:                   4
##########                       Formal_Charge:           0.0199997
##########                     HBond_Acceptors:                   7
##########                        HBond_Donors:                   1
##########                         Heavy_Atoms:                  25
##########                          Grid_Score:          -25.300777
##########                     Grid_vdw_energy:          -25.057903
##########                      Grid_es_energy:           -0.242874
##########           Internal_energy_repulsive:           30.497639

@<TRIPOS>MOLECULE
ZINC000530457945
 43 46 1 0 0
SMALL
USER_CHARGES


@<TRIPOS>ATOM
      1 C1         -8.6109   -0.7056   54.6073 C.3     1  ZINC000530457945   -0.1700
      2 C2         -9.8773    0.0592   54.2169 C.3     1  ZINC000530457945    0.0900
      3 H3        -10.1486    0.7562   55.0097 H       1  ZINC000530457945    0.1100
      4 C4        -11.0342   -0.9321   53.9706 C.3     1  ZINC000530457945   -0.1200
      5 H5        -10.6484   -1.9203   53.7205 H       1  ZINC000530457945    0.1100
      6 C6        -11.9389   -1.0043   55.1737 C.2     1  ZINC000530457945    0.5300
      7 O7        -12.8982   -0.2670   55.2562 O.2     1  ZINC000530457945   -0.4700
      8 N8        -11.6819   -1.8885   56.1580 N.am    1  ZINC000530457945   -0.6200
      9 C9        -12.5194   -1.9545   57.2737 C.2     1  ZINC000530457945    0.4800
     10 N10       -12.1557   -1.6988   58.5140 N.2     1  ZINC000530457945   -0.3000
     11 N11       -13.2881   -1.8804   59.3208 N.pl3   1  ZINC000530457945   -0.2800
     12 C12       -13.5047   -1.7592   60.6570 C.2     1  ZINC000530457945    0.1400
     13 C13       -14.7289   -2.0015   61.1805 C.2     1  ZINC000530457945   -0.0800
     14 Cl14      -14.9866   -1.8414   62.8897 Cl      1  ZINC000530457945   -0.0200
     15 C15       -15.7905   -2.3813   60.3453 C.2     1  ZINC000530457945   -0.0500
     16 C16       -15.5813   -2.5045   59.0049 C.2     1  ZINC000530457945   -0.0900
     17 C17       -14.3013   -2.2484   58.4820 C.2     1  ZINC000530457945    0.3000
     18 N18       -13.8080   -2.2794   57.2478 N.2     1  ZINC000530457945   -0.5500
     19 C19       -11.7758   -0.3096   52.7585 C.3     1  ZINC000530457945   -0.1200
     20 C20       -10.5994    0.2805   51.9414 C.3     1  ZINC000530457945    0.0400
     21 N21        -9.6519    0.7938   52.9586 N.3     1  ZINC000530457945   -0.4900
     22 C22        -8.3306    0.6541   52.5274 C.ar    1  ZINC000530457945    0.1000
     23 C23        -7.9202   -0.5208   51.9105 C.ar    1  ZINC000530457945   -0.1600
     24 C24        -6.6133   -0.6554   51.4849 C.ar    1  ZINC000530457945   -0.1100
     25 C25        -5.7135    0.3778   51.6728 C.ar    1  ZINC000530457945   -0.1300
     26 C26        -6.1187    1.5487   52.2865 C.ar    1  ZINC000530457945   -0.1100
     27 C27        -7.4256    1.6922   52.7093 C.ar    1  ZINC000530457945   -0.1000
     28 H28        -7.7700   -0.0139   54.6580 H       1  ZINC000530457945    0.0700
     29 H29        -8.7550   -1.1743   55.5807 H       1  ZINC000530457945    0.0600
     30 H30        -8.4055   -1.4732   53.8611 H       1  ZINC000530457945    0.0600
     31 H31       -10.9153   -2.4792   56.0913 H       1  ZINC000530457945    0.4300
     32 H32       -12.6928   -1.4672   61.3066 H       1  ZINC000530457945    0.1800
     33 H33       -16.7675   -2.5751   60.7628 H       1  ZINC000530457945    0.1600
     34 H34       -16.3896   -2.7964   58.3510 H       1  ZINC000530457945    0.1700
     35 H35       -12.3023   -1.0747   52.1880 H       1  ZINC000530457945    0.0900
     36 H36       -12.4601    0.4753   53.0805 H       1  ZINC000530457945    0.0900
     37 H37       -10.1280   -0.4964   51.3396 H       1  ZINC000530457945    0.0700
     38 H38       -10.9492    1.0941   51.3061 H       1  ZINC000530457945    0.0900
     39 H39        -8.6222   -1.3283   51.7641 H       1  ZINC000530457945    0.1200
     40 H40        -6.2935   -1.5686   51.0052 H       1  ZINC000530457945    0.1200
     41 H41        -4.6918    0.2697   51.3397 H       1  ZINC000530457945    0.1200
     42 H42        -5.4135    2.3537   52.4317 H       1  ZINC000530457945    0.1300
     43 H43        -7.7416    2.6071   53.1884 H       1  ZINC000530457945    0.1300
@<TRIPOS>BOND
     1     1     2    1
     2     1    28    1
     3     1    29    1
     4     1    30    1
     5     2     3    1
     6     2    21    1
     7     2     4    1
     8     4     5    1
     9     4     6    1
    10     4    19    1
    11     6     7    2
    12     6     8   am
    13     8     9    1
    14     8    31    1
    15     9    18    1
    16     9    10    2
    17    10    11    1
    18    11    17    1
    19    11    12    1
    20    12    13    2
    21    12    32    1
    22    13    14    1
    23    13    15    1
    24    15    16    2
    25    15    33    1
    26    16    17    1
    27    16    34    1
    28    17    18    2
    29    19    20    1
    30    19    35    1
    31    19    36    1
    32    20    21    1
    33    20    37    1
    34    20    38    1
    35    21    22    1
    36    22    27   ar
    37    22    23   ar
    38    23    24   ar
    39    23    39    1
    40    24    25   ar
    41    24    40    1
    42    25    26   ar
    43    25    41    1
    44    26    27   ar
    45    26    42    1
    46    27    43    1
@<TRIPOS>SUBSTRUCTURE
     1 ZINC000530457945        1 TEMP              0 ****  ****    0 ROOT


##########                                Name:    ZINC000966038509
##########                DOCK_Rotatable_Bonds:                   5
##########                         Heavy_Atoms:                  25
##########                    Molecular_Weight:             346.445
##########                DOCK_Rotatable_Bonds:                   5
##########                       Formal_Charge:           0.0299998
##########                     HBond_Acceptors:                   5
##########                        HBond_Donors:                   1
##########                         Heavy_Atoms:                  25
##########                          Grid_Score:          -25.187511
##########                     Grid_vdw_energy:          -24.434635
##########                      Grid_es_energy:           -0.752877
##########           Internal_energy_repulsive:           17.305243

@<TRIPOS>MOLECULE
ZINC000966038509
 52 54 1 0 0
SMALL
USER_CHARGES


@<TRIPOS>ATOM
      1 C1         -9.4392    0.7518   61.6185 C.3     1  ZINC000966038509   -0.1200
      2 C2        -10.3247   -0.2959   60.9947 C.ar    1  ZINC000966038509   -0.0100
      3 C3        -11.4807   -0.6917   61.6325 C.ar    1  ZINC000966038509   -0.1600
      4 C4        -12.2961   -1.6560   61.0599 C.ar    1  ZINC000966038509    0.1300
      5 F5        -13.4278   -2.0406   61.6895 F       1  ZINC000966038509   -0.1300
      6 C6        -11.9544   -2.2265   59.8433 C.ar    1  ZINC000966038509   -0.1600
      7 C7        -10.8006   -1.8380   59.1969 C.ar    1  ZINC000966038509   -0.0100
      8 C8        -10.4302   -2.4594   57.8748 C.3     1  ZINC000966038509   -0.1200
      9 C9         -9.9785   -0.8634   59.7666 C.ar    1  ZINC000966038509   -0.1500
     10 C10        -8.7408   -0.4431   59.0785 C.2     1  ZINC000966038509    0.5700
     11 O11        -7.6689   -0.9043   59.4197 O.2     1  ZINC000966038509   -0.5200
     12 N12        -8.7996    0.4517   58.0722 N.am    1  ZINC000966038509   -0.7100
     13 C13        -7.5723    0.8671   57.3887 C.3     1  ZINC000966038509    0.1300
     14 H14        -6.6932    0.4543   57.8834 H       1  ZINC000966038509    0.1200
     15 C15        -7.6071    0.4665   55.8927 C.3     1  ZINC000966038509    0.0900
     16 N16        -8.4113    1.5155   55.2397 N.am    1  ZINC000966038509   -0.6200
     17 C17        -9.0904    1.3790   54.0835 C.2     1  ZINC000966038509    0.5400
     18 O18        -9.7219    2.3133   53.6373 O.2     1  ZINC000966038509   -0.5300
     19 C19        -9.0649    0.0655   53.3453 C.3     1  ZINC000966038509   -0.1100
     20 C20       -10.3467   -0.1018   52.4919 C.3     1  ZINC000966038509   -0.1100
     21 C21        -9.9024   -1.1076   51.4012 C.3     1  ZINC000966038509   -0.1200
     22 C22        -8.4509   -0.6975   51.0771 C.3     1  ZINC000966038509   -0.1200
     23 C23        -7.9184    0.0483   52.3132 C.3     1  ZINC000966038509   -0.1100
     24 C24        -8.3503    2.7348   56.0589 C.3     1  ZINC000966038509    0.1000
     25 C25        -7.4836    2.4135   57.2960 C.3     1  ZINC000966038509   -0.1100
     26 H26        -6.4532    2.7321   57.1383 H       1  ZINC000966038509    0.1000
     27 C27        -8.0653    3.0697   58.5497 C.3     1  ZINC000966038509   -0.1400
     28 H28        -9.7519    1.7399   61.2807 H       1  ZINC000966038509    0.0800
     29 H29        -9.5201    0.6965   62.7041 H       1  ZINC000966038509    0.0800
     30 H30        -8.4050    0.5769   61.3220 H       1  ZINC000966038509    0.0700
     31 H31       -11.7517   -0.2503   62.5802 H       1  ZINC000966038509    0.1400
     32 H32       -12.5932   -2.9769   59.4014 H       1  ZINC000966038509    0.1400
     33 H33       -10.8641   -1.8742   57.0641 H       1  ZINC000966038509    0.0800
     34 H34        -9.3452   -2.4745   57.7718 H       1  ZINC000966038509    0.0700
     35 H35       -10.8134   -3.4790   57.8326 H       1  ZINC000966038509    0.0800
     36 H36        -9.6546    0.8206   57.8008 H       1  ZINC000966038509    0.4000
     37 H37        -6.5981    0.4503   55.4808 H       1  ZINC000966038509    0.0800
     38 H38        -8.0829   -0.5067   55.7716 H       1  ZINC000966038509    0.0800
     39 H39        -8.9599   -0.7629   54.0459 H       1  ZINC000966038509    0.0900
     40 H40       -11.1584   -0.5149   53.0909 H       1  ZINC000966038509    0.0700
     41 H41       -10.6400    0.8482   52.0451 H       1  ZINC000966038509    0.0700
     42 H42        -9.9338   -2.1268   51.7864 H       1  ZINC000966038509    0.0700
     43 H43       -10.5319   -1.0136   50.5163 H       1  ZINC000966038509    0.0700
     44 H44        -7.8461   -1.5841   50.8868 H       1  ZINC000966038509    0.0700
     45 H45        -8.4339   -0.0397   50.2081 H       1  ZINC000966038509    0.0700
     46 H46        -7.6431    1.0681   52.0441 H       1  ZINC000966038509    0.0800
     47 H47        -7.0553   -0.4763   52.7228 H       1  ZINC000966038509    0.0700
     48 H48        -7.8946    3.5431   55.4871 H       1  ZINC000966038509    0.0800
     49 H49        -9.3539    3.0205   56.3736 H       1  ZINC000966038509    0.0700
     50 H50        -9.0842    2.7153   58.7058 H       1  ZINC000966038509    0.0600
     51 H51        -7.4536    2.8089   59.4134 H       1  ZINC000966038509    0.0700
     52 H52        -8.0725    4.1523   58.4231 H       1  ZINC000966038509    0.0700
@<TRIPOS>BOND
     1     1     2    1
     2     1    28    1
     3     1    29    1
     4     1    30    1
     5     2     9   ar
     6     2     3   ar
     7     3     4   ar
     8     3    31    1
     9     4     5    1
    10     4     6   ar
    11     6     7   ar
    12     6    32    1
    13     7     8    1
    14     7     9   ar
    15     8    33    1
    16     8    34    1
    17     8    35    1
    18     9    10    1
    19    10    11    2
    20    10    12   am
    21    12    13    1
    22    12    36    1
    23    13    14    1
    24    13    25    1
    25    13    15    1
    26    15    16    1
    27    15    37    1
    28    15    38    1
    29    16    17   am
    30    16    24    1
    31    17    18    2
    32    17    19    1
    33    19    23    1
    34    19    20    1
    35    19    39    1
    36    20    21    1
    37    20    40    1
    38    20    41    1
    39    21    22    1
    40    21    42    1
    41    21    43    1
    42    22    23    1
    43    22    44    1
    44    22    45    1
    45    23    46    1
    46    23    47    1
    47    24    25    1
    48    24    48    1
    49    24    49    1
    50    25    26    1
    51    25    27    1
    52    27    50    1
    53    27    51    1
    54    27    52    1
@<TRIPOS>SUBSTRUCTURE
     1 ZINC000966038509        1 TEMP              0 ****  ****    0 ROOT


##########                                Name:    ZINC000888733009
##########                DOCK_Rotatable_Bonds:                   6
##########                         Heavy_Atoms:                  25
##########                    Molecular_Weight:             360.434
##########                DOCK_Rotatable_Bonds:                   6
##########                       Formal_Charge:        -1.02073e-06
##########                     HBond_Acceptors:                   7
##########                        HBond_Donors:                   2
##########                         Heavy_Atoms:                  25
##########                          Grid_Score:          -25.177059
##########                     Grid_vdw_energy:          -24.575048
##########                      Grid_es_energy:           -0.602010
##########           Internal_energy_repulsive:            9.976454

@<TRIPOS>MOLECULE
ZINC000888733009
 45 48 1 0 0
SMALL
USER_CHARGES


@<TRIPOS>ATOM
      1 C1         -7.3282    1.0742   53.7907 C.3     1  ZINC000888733009   -0.1500
      2 C2         -8.8571    1.0437   53.7372 C.3     1  ZINC000888733009    0.0700
      3 H3         -9.2455    2.0223   53.4552 H       1  ZINC000888733009    0.0700
      4 C4         -9.4351    0.6088   55.1053 C.3     1  ZINC000888733009   -0.1300
      5 C5        -10.6427   -0.2597   54.7280 C.3     1  ZINC000888733009   -0.1100
      6 C6        -10.7153   -1.6270   55.4031 C.3     1  ZINC000888733009   -0.1300
      7 C7        -12.2393   -1.4162   55.4673 C.3     1  ZINC000888733009    0.1200
      8 N8        -12.8391   -1.8567   56.7293 N.am    1  ZINC000888733009   -0.7100
      9 C9        -14.1371   -1.5988   56.9847 C.2     1  ZINC000888733009    0.5900
     10 O10       -14.8113   -1.0014   56.1663 O.2     1  ZINC000888733009   -0.5600
     11 C11       -14.7368   -2.0381   58.2481 C.2     1  ZINC000888733009   -0.2400
     12 C12       -14.0057   -2.3769   59.3577 C.2     1  ZINC000888733009    0.0800
     13 N13       -12.6228   -2.3484   59.4288 N.am    1  ZINC000888733009   -0.6100
     14 C14       -12.0126   -1.6528   60.4088 C.2     1  ZINC000888733009    0.6000
     15 O15       -12.6768   -1.0511   61.2322 O.2     1  ZINC000888733009   -0.4900
     16 C16       -10.5489   -1.6211   60.4830 C.2     1  ZINC000888733009   -0.0900
     17 C17        -9.6873   -2.1819   59.5838 C.2     1  ZINC000888733009   -0.1000
     18 C18        -8.3898   -1.9108   60.0451 C.2     1  ZINC000888733009   -0.2300
     19 C19        -8.5143   -1.2055   61.1911 C.2     1  ZINC000888733009    0.0100
     20 O20        -9.8167   -1.0280   61.4486 O.3     1  ZINC000888733009   -0.1600
     21 S21       -15.0327   -2.8377   60.6376 S.3     1  ZINC000888733009    0.3000
     22 C22       -16.4771   -2.5744   59.6767 C.2     1  ZINC000888733009   -0.2800
     23 C23       -16.1630   -2.1546   58.4596 C.2     1  ZINC000888733009   -0.0900
     24 C24       -11.9591    0.0969   55.4137 C.3     1  ZINC000888733009   -0.1400
     25 C25       -10.6682   -0.2692   53.1938 C.3     1  ZINC000888733009    0.0700
     26 O26        -9.3075    0.0360   52.8044 O.3     1  ZINC000888733009   -0.3700
     27 H27        -6.9360    1.3557   52.8134 H       1  ZINC000888733009    0.0600
     28 H28        -7.0052    1.8017   54.5352 H       1  ZINC000888733009    0.0700
     29 H29        -6.9544    0.0868   54.0615 H       1  ZINC000888733009    0.0600
     30 H30        -8.7025    0.0253   55.6630 H       1  ZINC000888733009    0.0800
     31 H31        -9.7529    1.4781   55.6809 H       1  ZINC000888733009    0.0800
     32 H32       -10.4144   -2.4510   54.7561 H       1  ZINC000888733009    0.0800
     33 H33       -10.2361   -1.6579   56.3815 H       1  ZINC000888733009    0.0900
     34 H34       -12.7690   -1.7941   54.5929 H       1  ZINC000888733009    0.1200
     35 H35       -12.3021   -2.3339   57.3810 H       1  ZINC000888733009    0.4000
     36 H36       -12.0935   -2.8289   58.7733 H       1  ZINC000888733009    0.4400
     37 H37        -9.9529   -2.7283   58.6909 H       1  ZINC000888733009    0.1700
     38 H38        -7.4655   -2.2099   59.5732 H       1  ZINC000888733009    0.1600
     39 H39        -7.6981   -0.8410   61.7971 H       1  ZINC000888733009    0.2200
     40 H40       -17.4856   -2.7295   60.0306 H       1  ZINC000888733009    0.1700
     41 H41       -16.8971   -1.9300   57.6999 H       1  ZINC000888733009    0.1500
     42 H42       -11.8315    0.5536   56.3951 H       1  ZINC000888733009    0.0900
     43 H43       -12.6499    0.6476   54.7751 H       1  ZINC000888733009    0.0800
     44 H44       -10.9588   -1.2525   52.8243 H       1  ZINC000888733009    0.0900
     45 H45       -11.3495    0.4952   52.8201 H       1  ZINC000888733009    0.0700
@<TRIPOS>BOND
     1     1     2    1
     2     1    27    1
     3     1    28    1
     4     1    29    1
     5     2     3    1
     6     2    26    1
     7     2     4    1
     8     4     5    1
     9     4    30    1
    10     4    31    1
    11     5    24    1
    12     5     6    1
    13     5    25    1
    14     6     7    1
    15     6    32    1
    16     6    33    1
    17     7     8    1
    18     7    24    1
    19     7    34    1
    20     8     9   am
    21     8    35    1
    22     9    10    2
    23     9    11    1
    24    11    23    1
    25    11    12    2
    26    12    13    1
    27    12    21    1
    28    13    14   am
    29    13    36    1
    30    14    15    2
    31    14    16    1
    32    16    20    1
    33    16    17    2
    34    17    18    1
    35    17    37    1
    36    18    19    2
    37    18    38    1
    38    19    20    1
    39    19    39    1
    40    21    22    1
    41    22    23    2
    42    22    40    1
    43    23    41    1
    44    24    42    1
    45    24    43    1
    46    25    26    1
    47    25    44    1
    48    25    45    1
@<TRIPOS>SUBSTRUCTURE
     1 ZINC000888733009        1 TEMP              0 ****  ****    0 ROOT


##########                                Name:    ZINC000879023512
##########                DOCK_Rotatable_Bonds:                   4
##########                         Heavy_Atoms:                  20
##########                    Molecular_Weight:             346.156
##########                DOCK_Rotatable_Bonds:                   4
##########                       Formal_Charge:        -5.96046e-08
##########                     HBond_Acceptors:                   7
##########                        HBond_Donors:                   1
##########                         Heavy_Atoms:                  20
##########                          Grid_Score:          -25.172188
##########                     Grid_vdw_energy:          -23.387861
##########                      Grid_es_energy:           -1.784326
##########           Internal_energy_repulsive:            3.690695

@<TRIPOS>MOLECULE
ZINC000879023512
 33 34 1 0 0
SMALL
USER_CHARGES


@<TRIPOS>ATOM
      1 O1        -10.2304    0.5019   62.5567 O.2     1  ZINC000879023512   -0.5600
      2 C2         -9.1719    0.0644   62.9647 C.2     1  ZINC000879023512    0.7200
      3 N3         -8.4087   -0.7071   62.1656 N.am    1  ZINC000879023512   -0.6800
      4 C4         -8.8373   -1.0094   60.8677 C.ar    1  ZINC000879023512    0.1800
      5 C5         -9.7486   -2.0357   60.6577 C.ar    1  ZINC000879023512   -0.0900
      6 C6        -10.1700   -2.3320   59.3760 C.ar    1  ZINC000879023512   -0.0700
      7 C7         -9.6845   -1.6075   58.3021 C.ar    1  ZINC000879023512   -0.0700
      8 Br8       -10.2636   -2.0159   56.5490 Br      1  ZINC000879023512    0.0200
      9 C9         -8.7762   -0.5841   58.5087 C.ar    1  ZINC000879023512    0.0000
     10 N10        -8.2590    0.1890   57.3573 N.pl3   1  ZINC000879023512    0.0200
     11 O11        -7.4595    1.0898   57.5384 O.2     1  ZINC000879023512   -0.1500
     12 O12        -8.6327   -0.0757   56.2287 O.2     1  ZINC000879023512   -0.1300
     13 C13        -8.3564   -0.2796   59.7885 C.ar    1  ZINC000879023512   -0.0500
     14 N14        -8.7593    0.3555   64.2143 N.am    1  ZINC000879023512   -0.6300
     15 C15        -9.4924    1.1760   65.1895 C.3     1  ZINC000879023512    0.0900
     16 C16        -8.6269    1.2550   66.4646 C.3     1  ZINC000879023512   -0.1200
     17 C17        -7.2011    0.9459   65.9365 C.3     1  ZINC000879023512   -0.1400
     18 H18        -6.7376    1.8389   65.5172 H       1  ZINC000879023512    0.1000
     19 C19        -6.3268    0.3435   67.0381 C.3     1  ZINC000879023512    0.0700
     20 F20        -6.9042   -0.8467   67.4934 F       1  ZINC000879023512   -0.2100
     21 C21        -7.5011   -0.1014   64.8321 C.3     1  ZINC000879023512    0.1300
     22 H22        -7.5624   -1.0528   62.4897 H       1  ZINC000879023512    0.4200
     23 H23       -10.1273   -2.6021   61.4957 H       1  ZINC000879023512    0.1600
     24 H24       -10.8788   -3.1302   59.2121 H       1  ZINC000879023512    0.1600
     25 H25        -7.6478    0.5194   59.9491 H       1  ZINC000879023512    0.1800
     26 H26        -9.6517    2.1764   64.7870 H       1  ZINC000879023512    0.0700
     27 H27       -10.4505    0.7101   65.4200 H       1  ZINC000879023512    0.0700
     28 H28        -8.6692    2.2542   66.8982 H       1  ZINC000879023512    0.0900
     29 H29        -8.9402    0.5049   67.1906 H       1  ZINC000879023512    0.0900
     30 H30        -5.3331    0.1364   66.6407 H       1  ZINC000879023512    0.0800
     31 H31        -6.2474    1.0487   67.8654 H       1  ZINC000879023512    0.0800
     32 H32        -7.6256   -1.0911   65.2715 H       1  ZINC000879023512    0.0800
     33 H33        -6.7010   -0.1119   64.0919 H       1  ZINC000879023512    0.0900
@<TRIPOS>BOND
     1     1     2    2
     2     2     3   am
     3     2    14   am
     4     3     4    1
     5     3    22    1
     6     4    13   ar
     7     4     5   ar
     8     5     6   ar
     9     5    23    1
    10     6     7   ar
    11     6    24    1
    12     7     8    1
    13     7     9   ar
    14     9    10    1
    15     9    13   ar
    16    10    11    2
    17    10    12    2
    18    13    25    1
    19    14    21    1
    20    14    15    1
    21    15    16    1
    22    15    26    1
    23    15    27    1
    24    16    17    1
    25    16    28    1
    26    16    29    1
    27    17    18    1
    28    17    19    1
    29    17    21    1
    30    19    20    1
    31    19    30    1
    32    19    31    1
    33    21    32    1
    34    21    33    1
@<TRIPOS>SUBSTRUCTURE
     1 ZINC000879023512        1 TEMP              0 ****  ****    0 ROOT


##########                                Name:    ZINC000176150038
##########                DOCK_Rotatable_Bonds:                   4
##########                         Heavy_Atoms:                  23
##########                    Molecular_Weight:             333.712
##########                DOCK_Rotatable_Bonds:                   4
##########                       Formal_Charge:        -2.23517e-07
##########                     HBond_Acceptors:                  10
##########                        HBond_Donors:                   1
##########                         Heavy_Atoms:                  23
##########                          Grid_Score:          -25.066912
##########                     Grid_vdw_energy:          -25.104158
##########                      Grid_es_energy:            0.037247
##########           Internal_energy_repulsive:           23.451365

@<TRIPOS>MOLECULE
ZINC000176150038
 32 34 1 0 0
SMALL
USER_CHARGES


@<TRIPOS>ATOM
      1 C1        -10.2117   -0.7191   51.5258 C.3     1  ZINC000176150038   -0.0900
      2 C2         -8.7395   -0.8510   51.8198 C.2     1  ZINC000176150038    0.2600
      3 N3         -7.8546   -1.4713   51.0839 N.2     1  ZINC000176150038   -0.3300
      4 N4         -6.6891   -1.3964   51.6179 N.2     1  ZINC000176150038   -0.0300
      5 N5         -6.7464   -0.7302   52.7205 N.2     1  ZINC000176150038   -0.0700
      6 N6         -8.0881   -0.3454   52.8894 N.pl3   1  ZINC000176150038   -0.3300
      7 C7         -8.6347    0.3977   53.9467 C.ar    1  ZINC000176150038    0.1400
      8 C8         -8.9547    1.7358   53.7622 C.ar    1  ZINC000176150038   -0.1000
      9 C9         -9.4936    2.4693   54.8023 C.ar    1  ZINC000176150038   -0.1100
     10 C10        -9.7158    1.8727   56.0299 C.ar    1  ZINC000176150038    0.1000
     11 F11       -10.2431    2.5919   57.0448 F       1  ZINC000176150038   -0.1200
     12 C12        -9.3968    0.5317   56.2200 C.ar    1  ZINC000176150038    0.1300
     13 N13        -9.6213   -0.0728   57.4620 N.am    1  ZINC000176150038   -0.6500
     14 C14        -8.7752    0.1564   58.4856 C.2     1  ZINC000176150038    0.5700
     15 O15        -7.8175    0.8878   58.3303 O.2     1  ZINC000176150038   -0.4800
     16 C16        -9.0132   -0.4843   59.8021 C.ar    1  ZINC000176150038    0.1400
     17 N17        -8.0898   -0.4273   60.7594 N.ar    1  ZINC000176150038   -0.4800
     18 C18        -8.2972   -0.9938   61.9284 C.ar    1  ZINC000176150038    0.3000
     19 N19        -9.4153   -1.6367   62.2042 N.ar    1  ZINC000176150038   -0.4800
     20 C20       -10.3820   -1.7389   61.3086 C.ar    1  ZINC000176150038    0.1700
     21 C21       -10.2123   -1.1526   60.0606 C.ar    1  ZINC000176150038   -0.1000
     22 Cl22      -11.4524   -1.2583   58.8503 Cl      1  ZINC000176150038    0.0100
     23 C23        -8.8608   -0.2064   55.1751 C.ar    1  ZINC000176150038   -0.0800
     24 H24       -10.3848    0.1800   50.9342 H       1  ZINC000176150038    0.1100
     25 H25       -10.5503   -1.5920   50.9677 H       1  ZINC000176150038    0.1100
     26 H26       -10.7644   -0.6498   52.4626 H       1  ZINC000176150038    0.0900
     27 H27        -8.7818    2.2045   52.8047 H       1  ZINC000176150038    0.1500
     28 H28        -9.7413    3.5103   54.6562 H       1  ZINC000176150038    0.1600
     29 H29       -10.3859   -0.6566   57.5860 H       1  ZINC000176150038    0.4300
     30 H30        -7.5289   -0.9308   62.6847 H       1  ZINC000176150038    0.2200
     31 H31       -11.2934   -2.2678   61.5452 H       1  ZINC000176150038    0.1900
     32 H32        -8.6124   -1.2475   55.3199 H       1  ZINC000176150038    0.1700
@<TRIPOS>BOND
     1     1     2    1
     2     1    24    1
     3     1    25    1
     4     1    26    1
     5     2     6    1
     6     2     3    2
     7     3     4    1
     8     4     5    2
     9     5     6    1
    10     6     7    1
    11     7    23   ar
    12     7     8   ar
    13     8     9   ar
    14     8    27    1
    15     9    10   ar
    16     9    28    1
    17    10    11    1
    18    10    12   ar
    19    12    13    1
    20    12    23   ar
    21    13    14   am
    22    13    29    1
    23    14    15    2
    24    14    16    1
    25    16    21   ar
    26    16    17   ar
    27    17    18   ar
    28    18    19   ar
    29    18    30    1
    30    19    20   ar
    31    20    21   ar
    32    20    31    1
    33    21    22    1
    34    23    32    1
@<TRIPOS>SUBSTRUCTURE
     1 ZINC000176150038        1 TEMP              0 ****  ****    0 ROOT


##########                                Name:    ZINC000534890536
##########                DOCK_Rotatable_Bonds:                   6
##########                         Heavy_Atoms:                  30
##########                    Molecular_Weight:             411.476
##########                DOCK_Rotatable_Bonds:                   6
##########                       Formal_Charge:          0.00999957
##########                     HBond_Acceptors:                   7
##########                        HBond_Donors:                   1
##########                         Heavy_Atoms:                  30
##########                          Grid_Score:          -25.027702
##########                     Grid_vdw_energy:          -24.094069
##########                      Grid_es_energy:           -0.933634
##########           Internal_energy_repulsive:           15.308459

@<TRIPOS>MOLECULE
ZINC000534890536
 56 59 1 0 0
SMALL
USER_CHARGES


@<TRIPOS>ATOM
      1 C1        -12.0802    2.3121   50.8901 C.3     1  ZINC000534890536    0.0300
      2 O2        -10.7284    1.8974   51.0963 O.3     1  ZINC000534890536   -0.3200
      3 C3        -10.4942    1.0501   52.1327 C.ar    1  ZINC000534890536    0.1300
      4 C4         -9.2039    0.6127   52.3946 C.ar    1  ZINC000534890536   -0.2100
      5 C5         -8.9685   -0.2482   53.4490 C.ar    1  ZINC000534890536   -0.0700
      6 C6        -10.0174   -0.6742   54.2428 C.ar    1  ZINC000534890536   -0.1100
      7 C7         -9.7577   -1.6138   55.3920 C.3     1  ZINC000534890536   -0.0600
      8 H8         -8.7331   -1.9845   55.3670 H       1  ZINC000534890536    0.0900
      9 C9        -10.7737   -2.7864   55.3922 C.3     1  ZINC000534890536   -0.1200
     10 C10       -10.8260   -3.1982   56.8786 C.3     1  ZINC000534890536    0.1000
     11 N11       -10.3736   -2.0432   57.6677 N.am    1  ZINC000534890536   -0.6400
     12 C12       -10.2557   -2.0065   59.0099 C.2     1  ZINC000534890536    0.7300
     13 O13       -10.5341   -2.9878   59.6716 O.2     1  ZINC000534890536   -0.5700
     14 N14        -9.8291   -0.8822   59.6184 N.am    1  ZINC000534890536   -0.7300
     15 C15        -9.7026   -0.8418   61.0774 C.3     1  ZINC000534890536    0.1600
     16 H16       -10.2773   -1.6588   61.5134 H       1  ZINC000534890536    0.1200
     17 C17        -8.2294   -0.9934   61.4643 C.3     1  ZINC000534890536   -0.1300
     18 C18        -8.0852   -0.6748   62.9574 C.3     1  ZINC000534890536   -0.1300
     19 C19        -8.3734    0.8117   63.1709 C.3     1  ZINC000534890536    0.1100
     20 N20        -9.6343    1.1825   62.5408 N.am    1  ZINC000534890536   -0.5600
     21 C21       -10.2558    2.3647   62.9622 C.ar    1  ZINC000534890536    0.1000
     22 C22        -9.9178    3.5757   62.3749 C.ar    1  ZINC000534890536   -0.0800
     23 C23       -10.5331    4.7405   62.7923 C.ar    1  ZINC000534890536   -0.1200
     24 C24       -11.4845    4.7017   63.7944 C.ar    1  ZINC000534890536   -0.0800
     25 C25       -11.8248    3.4972   64.3830 C.ar    1  ZINC000534890536   -0.1500
     26 C26       -11.2175    2.3270   63.9664 C.ar    1  ZINC000534890536    0.1100
     27 F27       -11.5500    1.1503   64.5409 F       1  ZINC000534890536   -0.1300
     28 C28       -10.2310    0.4679   61.5878 C.2     1  ZINC000534890536    0.5000
     29 O29       -11.2588    0.8968   61.1073 O.2     1  ZINC000534890536   -0.5100
     30 C30       -10.0684   -0.9318   56.7478 C.3     1  ZINC000534890536    0.1300
     31 C31       -11.3042   -0.2393   53.9841 C.ar    1  ZINC000534890536   -0.0700
     32 C32       -11.5442    0.6257   52.9341 C.ar    1  ZINC000534890536   -0.1500
     33 H33       -12.7035    1.4382   50.7006 H       1  ZINC000534890536    0.0600
     34 H34       -12.4411    2.8298   51.7789 H       1  ZINC000534890536    0.0600
     35 H35       -12.1274    2.9847   50.0336 H       1  ZINC000534890536    0.1000
     36 H36        -8.3844    0.9445   51.7746 H       1  ZINC000534890536    0.1300
     37 H37        -7.9642   -0.5891   53.6534 H       1  ZINC000534890536    0.1300
     38 H38       -11.7523   -2.4489   55.0509 H       1  ZINC000534890536    0.0800
     39 H39       -10.4122   -3.6100   54.7764 H       1  ZINC000534890536    0.0900
     40 H40       -11.8475   -3.4591   57.1552 H       1  ZINC000534890536    0.0700
     41 H41       -10.1647   -4.0473   57.0515 H       1  ZINC000534890536    0.0700
     42 H42        -9.6058   -0.0997   59.0904 H       1  ZINC000534890536    0.4000
     43 H43        -7.9032   -2.0159   61.2741 H       1  ZINC000534890536    0.0900
     44 H44        -7.6235   -0.2999   60.8810 H       1  ZINC000534890536    0.0800
     45 H45        -8.7965   -1.2710   63.5288 H       1  ZINC000534890536    0.0800
     46 H46        -7.0699   -0.9010   63.2832 H       1  ZINC000534890536    0.1000
     47 H47        -8.4305    1.0178   64.2398 H       1  ZINC000534890536    0.0800
     48 H48        -7.5662    1.4012   62.7362 H       1  ZINC000534890536    0.0700
     49 H49        -9.1743    3.6078   61.5923 H       1  ZINC000534890536    0.1300
     50 H50       -10.2699    5.6829   62.3351 H       1  ZINC000534890536    0.1300
     51 H51       -11.9628    5.6140   64.1188 H       1  ZINC000534890536    0.1400
     52 H52       -12.5685    3.4702   65.1658 H       1  ZINC000534890536    0.1400
     53 H53        -9.2007   -0.3745   57.1010 H       1  ZINC000534890536    0.0800
     54 H54       -10.9305   -0.2718   56.6510 H       1  ZINC000534890536    0.0700
     55 H55       -12.1217   -0.5732   54.6057 H       1  ZINC000534890536    0.1300
     56 H56       -12.5493    0.9652   52.7324 H       1  ZINC000534890536    0.1300
@<TRIPOS>BOND
     1     1     2    1
     2     1    33    1
     3     1    34    1
     4     1    35    1
     5     2     3    1
     6     3    32   ar
     7     3     4   ar
     8     4     5   ar
     9     4    36    1
    10     5     6   ar
    11     5    37    1
    12     6     7    1
    13     6    31   ar
    14     7     8    1
    15     7    30    1
    16     7     9    1
    17     9    10    1
    18     9    38    1
    19     9    39    1
    20    10    11    1
    21    10    40    1
    22    10    41    1
    23    11    12   am
    24    11    30    1
    25    12    13    2
    26    12    14   am
    27    14    15    1
    28    14    42    1
    29    15    16    1
    30    15    28    1
    31    15    17    1
    32    17    18    1
    33    17    43    1
    34    17    44    1
    35    18    19    1
    36    18    45    1
    37    18    46    1
    38    19    20    1
    39    19    47    1
    40    19    48    1
    41    20    21    1
    42    20    28   am
    43    21    26   ar
    44    21    22   ar
    45    22    23   ar
    46    22    49    1
    47    23    24   ar
    48    23    50    1
    49    24    25   ar
    50    24    51    1
    51    25    26   ar
    52    25    52    1
    53    26    27    1
    54    28    29    2
    55    30    53    1
    56    30    54    1
    57    31    32   ar
    58    31    55    1
    59    32    56    1
@<TRIPOS>SUBSTRUCTURE
     1 ZINC000534890536        1 TEMP              0 ****  ****    0 ROOT


##########                                Name:    ZINC000541315701
##########                DOCK_Rotatable_Bonds:                   4
##########                         Heavy_Atoms:                  25
##########                    Molecular_Weight:             422.709
##########                DOCK_Rotatable_Bonds:                   4
##########                       Formal_Charge:           0.0300003
##########                     HBond_Acceptors:                   6
##########                        HBond_Donors:                   0
##########                         Heavy_Atoms:                  25
##########                          Grid_Score:          -24.942554
##########                     Grid_vdw_energy:          -24.242926
##########                      Grid_es_energy:           -0.699629
##########           Internal_energy_repulsive:           20.768814

@<TRIPOS>MOLECULE
ZINC000541315701
 42 44 1 0 0
SMALL
USER_CHARGES


@<TRIPOS>ATOM
      1 C1         -2.7524    2.3627   50.5267 C.3     1  ZINC000541315701    0.0800
      2 N2         -1.5810    2.0557   49.7022 N.am    1  ZINC000541315701   -0.5700
      3 C3         -1.7344    1.7645   48.3952 C.2     1  ZINC000541315701    0.5400
      4 O4         -2.8422    1.7567   47.9017 O.2     1  ZINC000541315701   -0.5000
      5 C5         -0.5294    1.4485   47.5472 C.3     1  ZINC000541315701   -0.1100
      6 H6          0.2825    2.1466   47.7511 H       1  ZINC000541315701    0.1300
      7 C7         -0.0700   -0.0124   47.7610 C.3     1  ZINC000541315701   -0.1500
      8 C8         -0.7758   -0.7867   46.6697 C.2     1  ZINC000541315701    0.5200
      9 O9         -0.9108   -1.9918   46.6493 O.2     1  ZINC000541315701   -0.5200
     10 N10        -1.2316    0.0552   45.7263 N.am    1  ZINC000541315701   -0.6100
     11 C11        -1.9703   -0.3631   44.5323 C.3     1  ZINC000541315701    0.0900
     12 C12        -0.8944    1.4483   46.0461 C.3     1  ZINC000541315701    0.1900
     13 H13        -1.7532    2.0951   45.8663 H       1  ZINC000541315701    0.1100
     14 C14         0.2817    1.9029   45.2208 C.ar    1  ZINC000541315701   -0.0900
     15 C15         0.5887    3.2480   45.1377 C.ar    1  ZINC000541315701   -0.1000
     16 C16         1.6678    3.6659   44.3810 C.ar    1  ZINC000541315701   -0.1000
     17 C17         2.4398    2.7388   43.7070 C.ar    1  ZINC000541315701   -0.1000
     18 C18         2.1330    1.3921   43.7899 C.ar    1  ZINC000541315701   -0.0300
     19 Cl19        3.1027    0.2268   42.9441 Cl      1  ZINC000541315701   -0.0600
     20 C20         1.0566    0.9741   44.5517 C.ar    1  ZINC000541315701   -0.0900
     21 C21        -0.3073    2.0645   50.2697 C.ar    1  ZINC000541315701    0.3800
     22 N22         0.2603    0.9230   50.6245 N.ar    1  ZINC000541315701   -0.4700
     23 C23         1.4637    0.8867   51.1643 C.ar    1  ZINC000541315701    0.1300
     24 C24         2.1788    2.0479   51.3796 C.ar    1  ZINC000541315701   -0.1600
     25 C25         1.6195    3.2671   51.0216 C.ar    1  ZINC000541315701   -0.0400
     26 C26         0.3576    3.2728   50.4525 C.ar    1  ZINC000541315701   -0.1300
     27 Br27       -0.4569    4.9016   49.9433 Br      1  ZINC000541315701   -0.0200
     28 H28        -3.6026    1.7731   50.1839 H       1  ZINC000541315701    0.0900
     29 H29        -2.5379    2.1201   51.5675 H       1  ZINC000541315701    0.0800
     30 H30        -2.9881    3.4236   50.4421 H       1  ZINC000541315701    0.0700
     31 H31         1.0112   -0.0927   47.6476 H       1  ZINC000541315701    0.1200
     32 H32        -0.3791   -0.3696   48.7434 H       1  ZINC000541315701    0.1100
     33 H33        -2.0849   -1.4470   44.5371 H       1  ZINC000541315701    0.0900
     34 H34        -2.9540    0.1063   44.5305 H       1  ZINC000541315701    0.0700
     35 H35        -1.4214   -0.0597   43.6407 H       1  ZINC000541315701    0.0600
     36 H36        -0.0149    3.9729   45.6636 H       1  ZINC000541315701    0.1300
     37 H37         1.9073    4.7170   44.3164 H       1  ZINC000541315701    0.1400
     38 H38         3.2824    3.0654   43.1155 H       1  ZINC000541315701    0.1400
     39 H39         0.8166   -0.0768   44.6168 H       1  ZINC000541315701    0.1400
     40 H40         1.8949   -0.0639   51.4417 H       1  ZINC000541315701    0.1700
     41 H41         3.1632    2.0082   51.8223 H       1  ZINC000541315701    0.1500
     42 H42         2.1583    4.1896   51.1795 H       1  ZINC000541315701    0.1500
@<TRIPOS>BOND
     1     1     2    1
     2     1    28    1
     3     1    29    1
     4     1    30    1
     5     2     3   am
     6     2    21    1
     7     3     4    2
     8     3     5    1
     9     5     6    1
    10     5    12    1
    11     5     7    1
    12     7     8    1
    13     7    31    1
    14     7    32    1
    15     8     9    2
    16     8    10   am
    17    10    11    1
    18    10    12    1
    19    11    33    1
    20    11    34    1
    21    11    35    1
    22    12    13    1
    23    12    14    1
    24    14    20   ar
    25    14    15   ar
    26    15    16   ar
    27    15    36    1
    28    16    17   ar
    29    16    37    1
    30    17    18   ar
    31    17    38    1
    32    18    19    1
    33    18    20   ar
    34    20    39    1
    35    21    26   ar
    36    21    22   ar
    37    22    23   ar
    38    23    24   ar
    39    23    40    1
    40    24    25   ar
    41    24    41    1
    42    25    26   ar
    43    25    42    1
    44    26    27    1
@<TRIPOS>SUBSTRUCTURE
     1 ZINC000541315701        1 TEMP              0 ****  ****    0 ROOT


##########                                Name:    ZINC000616491533
##########                DOCK_Rotatable_Bonds:                   4
##########                         Heavy_Atoms:                  27
##########                    Molecular_Weight:             375.418
##########                DOCK_Rotatable_Bonds:                   4
##########                       Formal_Charge:           0.0299996
##########                     HBond_Acceptors:                   7
##########                        HBond_Donors:                   0
##########                         Heavy_Atoms:                  27
##########                          Grid_Score:          -24.917698
##########                     Grid_vdw_energy:          -24.490480
##########                      Grid_es_energy:           -0.427218
##########           Internal_energy_repulsive:            8.395192

@<TRIPOS>MOLECULE
ZINC000616491533
 50 53 1 0 0
SMALL
USER_CHARGES


@<TRIPOS>ATOM
      1 C1        -11.7865   -0.3423   61.4782 C.3     1  ZINC000616491533   -0.1700
      2 C2        -12.1436   -1.7644   61.0413 C.3     1  ZINC000616491533    0.1400
      3 H3        -11.6043   -2.4868   61.6541 H       1  ZINC000616491533    0.0800
      4 C4        -13.6654   -1.9900   61.1804 C.3     1  ZINC000616491533   -0.1200
      5 C5        -14.1800   -1.7570   59.7446 C.3     1  ZINC000616491533   -0.0700
      6 C6        -13.0276   -2.3065   58.8822 C.3     1  ZINC000616491533    0.0900
      7 N7        -11.7979   -1.9539   59.6243 N.am    1  ZINC000616491533   -0.6100
      8 C8        -10.5678   -1.8251   59.0890 C.2     1  ZINC000616491533    0.6100
      9 O9         -9.6248   -1.5272   59.7969 O.2     1  ZINC000616491533   -0.5200
     10 C10       -10.3651   -2.0454   57.6456 C.2     1  ZINC000616491533   -0.2400
     11 C11       -10.2111   -1.0694   56.6814 C.2     1  ZINC000616491533    0.0700
     12 C12       -10.2194    0.4201   56.9100 C.3     1  ZINC000616491533    0.3400
     13 F13       -11.4720    0.8105   57.3956 F       1  ZINC000616491533   -0.1900
     14 F14        -9.2325    0.7541   57.8436 F       1  ZINC000616491533   -0.1600
     15 N15       -10.0518   -1.6932   55.5000 N.pl3   1  ZINC000616491533   -0.2900
     16 C16        -9.8640   -1.0657   54.2609 C.ar    1  ZINC000616491533    0.1300
     17 C17       -10.9158   -0.9787   53.3587 C.ar    1  ZINC000616491533   -0.1000
     18 C18       -10.7277   -0.3597   52.1385 C.ar    1  ZINC000616491533   -0.1000
     19 C19        -9.4932    0.1727   51.8147 C.ar    1  ZINC000616491533   -0.1000
     20 C20        -8.4438    0.0875   52.7110 C.ar    1  ZINC000616491533   -0.1000
     21 C21        -8.6274   -0.5247   53.9354 C.ar    1  ZINC000616491533   -0.0900
     22 N22       -10.1053   -3.0745   55.7176 N.2     1  ZINC000616491533   -0.2600
     23 C23       -10.2860   -3.2953   56.9908 C.2     1  ZINC000616491533    0.0700
     24 C24       -15.4596   -2.5431   59.4985 C.3     1  ZINC000616491533   -0.1400
     25 C25       -15.9663   -2.2529   58.0814 C.3     1  ZINC000616491533    0.0600
     26 O26       -16.1426   -0.8435   57.9226 O.3     1  ZINC000616491533   -0.3800
     27 C27       -14.9423   -0.0813   58.0670 C.3     1  ZINC000616491533    0.0600
     28 C28       -14.3884   -0.2723   59.4834 C.3     1  ZINC000616491533   -0.1500
     29 H29       -12.3193    0.3743   60.8534 H       1  ZINC000616491533    0.0600
     30 H30       -12.0729   -0.1996   62.5201 H       1  ZINC000616491533    0.0600
     31 H31       -10.7125   -0.1887   61.3724 H       1  ZINC000616491533    0.0800
     32 H32       -13.8764   -3.0088   61.5054 H       1  ZINC000616491533    0.0800
     33 H33       -14.1016   -1.2661   61.8688 H       1  ZINC000616491533    0.0900
     34 H34       -13.1115   -3.3886   58.7816 H       1  ZINC000616491533    0.0800
     35 H35       -13.0282   -1.8320   57.9009 H       1  ZINC000616491533    0.0800
     36 H36       -10.0184    0.9332   55.9695 H       1  ZINC000616491533    0.1400
     37 H37       -11.8800   -1.3949   53.6107 H       1  ZINC000616491533    0.1300
     38 H38       -11.5455   -0.2917   51.4363 H       1  ZINC000616491533    0.1400
     39 H39        -9.3483    0.6555   50.8595 H       1  ZINC000616491533    0.1300
     40 H40        -7.4808    0.5042   52.4554 H       1  ZINC000616491533    0.1400
     41 H41        -7.8073   -0.5910   54.6351 H       1  ZINC000616491533    0.1300
     42 H42       -10.3672   -4.2641   57.4612 H       1  ZINC000616491533    0.2100
     43 H43       -15.2573   -3.6092   59.6015 H       1  ZINC000616491533    0.0800
     44 H44       -16.2160   -2.2437   60.2240 H       1  ZINC000616491533    0.0800
     45 H45       -15.2387   -2.6129   57.3539 H       1  ZINC000616491533    0.0500
     46 H46       -16.9191   -2.7588   57.9248 H       1  ZINC000616491533    0.1000
     47 H47       -14.2055   -0.4214   57.3394 H       1  ZINC000616491533    0.0500
     48 H48       -15.1590    0.9738   57.9004 H       1  ZINC000616491533    0.1000
     49 H49       -15.0967    0.1288   60.2083 H       1  ZINC000616491533    0.0800
     50 H50       -13.4366    0.2506   59.5756 H       1  ZINC000616491533    0.0800
@<TRIPOS>BOND
     1     1     2    1
     2     1    29    1
     3     1    30    1
     4     1    31    1
     5     2     3    1
     6     2     7    1
     7     2     4    1
     8     4     5    1
     9     4    32    1
    10     4    33    1
    11     5    28    1
    12     5     6    1
    13     5    24    1
    14     6     7    1
    15     6    34    1
    16     6    35    1
    17     7     8   am
    18     8     9    2
    19     8    10    1
    20    10    23    1
    21    10    11    2
    22    11    12    1
    23    11    15    1
    24    12    13    1
    25    12    14    1
    26    12    36    1
    27    15    16    1
    28    15    22    1
    29    16    21   ar
    30    16    17   ar
    31    17    18   ar
    32    17    37    1
    33    18    19   ar
    34    18    38    1
    35    19    20   ar
    36    19    39    1
    37    20    21   ar
    38    20    40    1
    39    21    41    1
    40    22    23    2
    41    23    42    1
    42    24    25    1
    43    24    43    1
    44    24    44    1
    45    25    26    1
    46    25    45    1
    47    25    46    1
    48    26    27    1
    49    27    28    1
    50    27    47    1
    51    27    48    1
    52    28    49    1
    53    28    50    1
@<TRIPOS>SUBSTRUCTURE
     1 ZINC000616491533        1 TEMP              0 ****  ****    0 ROOT


##########                                Name:    ZINC000080099940
##########                DOCK_Rotatable_Bonds:                   4
##########                         Heavy_Atoms:                  26
##########                    Molecular_Weight:             343.388
##########                DOCK_Rotatable_Bonds:                   4
##########                       Formal_Charge:        -3.42727e-07
##########                     HBond_Acceptors:                   6
##########                        HBond_Donors:                   1
##########                         Heavy_Atoms:                  26
##########                          Grid_Score:          -24.912945
##########                     Grid_vdw_energy:          -25.326145
##########                      Grid_es_energy:            0.413200
##########           Internal_energy_repulsive:            3.490090

@<TRIPOS>MOLECULE
ZINC000080099940
 43 46 1 0 0
SMALL
USER_CHARGES


@<TRIPOS>ATOM
      1 C1         -8.0678   -0.5011   67.7766 C.3     1  ZINC000080099940   -0.1100
      2 C2         -8.2870    0.1755   66.4479 C.2     1  ZINC000080099940   -0.0700
      3 C3         -8.3664   -0.5643   65.3094 C.2     1  ZINC000080099940   -0.0900
      4 C4         -8.5719    0.0862   64.0753 C.2     1  ZINC000080099940    0.2300
      5 N5         -8.6861   -0.3725   62.8377 N.2     1  ZINC000080099940   -0.4800
      6 C6         -8.8738    0.6609   62.0015 C.2     1  ZINC000080099940    0.1000
      7 C7         -9.0475    0.5683   60.5309 C.ar    1  ZINC000080099940   -0.0200
      8 C8         -8.7203    1.6537   59.7198 C.ar    1  ZINC000080099940   -0.0800
      9 C9         -8.8821    1.5654   58.3534 C.ar    1  ZINC000080099940   -0.1200
     10 C10        -9.3714    0.3952   57.7847 C.ar    1  ZINC000080099940    0.1500
     11 N11        -9.5350    0.3081   56.3995 N.am    1  ZINC000080099940   -0.6500
     12 C12        -8.4552    0.2258   55.5972 C.2     1  ZINC000080099940    0.5700
     13 O13        -7.3394    0.2274   56.0782 O.2     1  ZINC000080099940   -0.5000
     14 C14        -8.6289    0.1333   54.1263 C.ar    1  ZINC000080099940    0.1300
     15 C15        -7.5190    0.0503   53.2849 C.ar    1  ZINC000080099940   -0.1700
     16 C16        -7.7365   -0.0349   51.9168 C.ar    1  ZINC000080099940    0.1600
     17 N17        -8.9772   -0.0345   51.4608 N.ar    1  ZINC000080099940   -0.5000
     18 C18       -10.0045    0.0452   52.2844 C.ar    1  ZINC000080099940    0.3200
     19 C19       -11.4001    0.0419   51.7156 C.3     1  ZINC000080099940   -0.0900
     20 N20        -9.8464    0.1225   53.5881 N.ar    1  ZINC000080099940   -0.5000
     21 C21        -9.6979   -0.6884   58.5916 C.ar    1  ZINC000080099940   -0.1400
     22 C22        -9.5326   -0.6062   59.9580 C.ar    1  ZINC000080099940   -0.0700
     23 C23        -8.8783    1.8091   62.7348 C.2     1  ZINC000080099940   -0.0900
     24 N24        -8.6886    1.4521   64.0408 N.pl3   1  ZINC000080099940   -0.3600
     25 C25        -8.6070    2.1822   65.1916 C.2     1  ZINC000080099940    0.0600
     26 C26        -8.4163    1.5726   66.3804 C.2     1  ZINC000080099940   -0.1400
     27 H27        -8.0373    0.2499   68.5660 H       1  ZINC000080099940    0.0700
     28 H28        -8.8839   -1.1975   67.9688 H       1  ZINC000080099940    0.0800
     29 H29        -7.1233   -1.0449   67.7558 H       1  ZINC000080099940    0.0800
     30 H30        -8.2725   -1.6396   65.3500 H       1  ZINC000080099940    0.1500
     31 H31        -8.3407    2.5632   60.1613 H       1  ZINC000080099940    0.1300
     32 H32        -8.6286    2.4060   57.7246 H       1  ZINC000080099940    0.1400
     33 H33       -10.4257    0.3067   56.0155 H       1  ZINC000080099940    0.4200
     34 H34        -6.5169    0.0526   53.6876 H       1  ZINC000080099940    0.1600
     35 H35        -6.9026   -0.1003   51.2335 H       1  ZINC000080099940    0.1800
     36 H36       -11.7617   -0.9840   51.6463 H       1  ZINC000080099940    0.0900
     37 H37       -12.0591    0.6163   52.3666 H       1  ZINC000080099940    0.0900
     38 H38       -11.3887    0.4910   50.7224 H       1  ZINC000080099940    0.0900
     39 H39       -10.0778   -1.5966   58.1477 H       1  ZINC000080099940    0.1300
     40 H40        -9.7861   -1.4486   60.5845 H       1  ZINC000080099940    0.1400
     41 H41        -9.0071    2.8122   62.3558 H       1  ZINC000080099940    0.1900
     42 H42        -8.7005    3.2573   65.1506 H       1  ZINC000080099940    0.1700
     43 H43        -8.3541    2.1624   67.2830 H       1  ZINC000080099940    0.1500
@<TRIPOS>BOND
     1     1     2    1
     2     1    27    1
     3     1    28    1
     4     1    29    1
     5     2    26    1
     6     2     3    2
     7     3     4    1
     8     3    30    1
     9     4    24    1
    10     4     5    2
    11     5     6    1
    12     6     7    1
    13     6    23    2
    14     7    22   ar
    15     7     8   ar
    16     8     9   ar
    17     8    31    1
    18     9    10   ar
    19     9    32    1
    20    10    11    1
    21    10    21   ar
    22    11    12   am
    23    11    33    1
    24    12    13    2
    25    12    14    1
    26    14    20   ar
    27    14    15   ar
    28    15    16   ar
    29    15    34    1
    30    16    17   ar
    31    16    35    1
    32    17    18   ar
    33    18    19    1
    34    18    20   ar
    35    19    36    1
    36    19    37    1
    37    19    38    1
    38    21    22   ar
    39    21    39    1
    40    22    40    1
    41    23    24    1
    42    23    41    1
    43    24    25    1
    44    25    26    2
    45    25    42    1
    46    26    43    1
@<TRIPOS>SUBSTRUCTURE
     1 ZINC000080099940        1 TEMP              0 ****  ****    0 ROOT


##########                                Name:    ZINC000845755710
##########                DOCK_Rotatable_Bonds:                   3
##########                         Heavy_Atoms:                  24
##########                    Molecular_Weight:             349.814
##########                DOCK_Rotatable_Bonds:                   3
##########                       Formal_Charge:         -0.00999974
##########                     HBond_Acceptors:                   6
##########                        HBond_Donors:                   0
##########                         Heavy_Atoms:                  24
##########                          Grid_Score:          -24.842438
##########                     Grid_vdw_energy:          -24.299057
##########                      Grid_es_energy:           -0.543382
##########           Internal_energy_repulsive:           18.027630

@<TRIPOS>MOLECULE
ZINC000845755710
 44 47 1 0 0
SMALL
USER_CHARGES


@<TRIPOS>ATOM
      1 C1        -11.9342   -3.4084   57.1561 C.3     1  ZINC000845755710   -0.1700
      2 C2        -10.8944   -2.3146   57.4080 C.3     1  ZINC000845755710    0.2600
      3 C3        -10.5646   -2.2529   58.9007 C.3     1  ZINC000845755710   -0.0900
      4 C4         -9.5511   -1.1344   59.1531 C.3     1  ZINC000845755710   -0.1300
      5 C5         -9.1972   -1.0981   60.6431 C.3     1  ZINC000845755710    0.1100
      6 N6        -10.4375   -0.9752   61.4209 N.am    1  ZINC000845755710   -0.6000
      7 C7        -10.5842    0.0104   62.3284 C.2     1  ZINC000845755710    0.5900
      8 O8        -11.6163    0.1013   62.9661 O.2     1  ZINC000845755710   -0.5200
      9 C9         -9.4967    0.9759   62.5477 C.2     1  ZINC000845755710   -0.2200
     10 C10        -9.1684    2.0362   61.7607 C.2     1  ZINC000845755710    0.0600
     11 O11        -8.1220    2.6846   62.2849 O.3     1  ZINC000845755710   -0.1800
     12 C12        -7.7052    2.1014   63.4281 C.ar    1  ZINC000845755710    0.0500
     13 C13        -6.6824    2.3900   64.3228 C.ar    1  ZINC000845755710   -0.0900
     14 C14        -6.4921    1.5938   65.4323 C.ar    1  ZINC000845755710   -0.0800
     15 C15        -7.3140    0.5010   65.6677 C.ar    1  ZINC000845755710   -0.0400
     16 Cl16       -7.0571   -0.4891   67.0704 Cl      1  ZINC000845755710   -0.0600
     17 C17        -8.3352    0.1994   64.7901 C.ar    1  ZINC000845755710   -0.0500
     18 C18        -8.5386    0.9997   63.6711 C.ar    1  ZINC000845755710   -0.0900
     19 C19       -11.5152   -1.9468   61.1903 C.3     1  ZINC000845755710    0.1000
     20 C20       -11.8431   -1.9736   59.6941 C.3     1  ZINC000845755710   -0.1300
     21 O21        -9.6991   -2.6040   56.6637 O.3     1  ZINC000845755710   -0.3700
     22 C22        -9.8320   -1.8430   55.4392 C.3     1  ZINC000845755710    0.0100
     23 C23       -10.5358   -0.5579   55.9422 C.3     1  ZINC000845755710    0.0200
     24 O24       -11.4122   -1.0493   56.9762 O.3     1  ZINC000845755710   -0.3800
     25 H25       -12.1713   -3.4466   56.0929 H       1  ZINC000845755710    0.0600
     26 H26       -11.5331   -4.3710   57.4736 H       1  ZINC000845755710    0.0800
     27 H27       -12.8388   -3.1871   57.7225 H       1  ZINC000845755710    0.0800
     28 H28       -10.1407   -3.2054   59.2185 H       1  ZINC000845755710    0.0900
     29 H29        -8.6497   -1.3218   58.5695 H       1  ZINC000845755710    0.0800
     30 H30        -9.9835   -0.1782   58.8584 H       1  ZINC000845755710    0.0800
     31 H31        -8.6826   -2.0185   60.9189 H       1  ZINC000845755710    0.0700
     32 H32        -8.5529   -0.2423   60.8449 H       1  ZINC000845755710    0.1000
     33 H33        -9.6765    2.3129   60.8488 H       1  ZINC000845755710    0.2200
     34 H34        -6.0361    3.2377   64.1492 H       1  ZINC000845755710    0.1500
     35 H35        -5.6954    1.8227   66.1246 H       1  ZINC000845755710    0.1500
     36 H36        -8.9751   -0.6512   64.9731 H       1  ZINC000845755710    0.1400
     37 H37       -11.1897   -2.9365   61.5107 H       1  ZINC000845755710    0.0800
     38 H38       -12.4005   -1.6511   61.7532 H       1  ZINC000845755710    0.0900
     39 H39       -12.2541   -1.0095   59.3945 H       1  ZINC000845755710    0.0700
     40 H40       -12.5732   -2.7583   59.4957 H       1  ZINC000845755710    0.0800
     41 H41        -8.8547   -1.6122   55.0151 H       1  ZINC000845755710    0.1100
     42 H42       -10.4542   -2.3714   54.7169 H       1  ZINC000845755710    0.0800
     43 H43        -9.8095    0.1431   56.3537 H       1  ZINC000845755710    0.0800
     44 H44       -11.1091   -0.0935   55.1399 H       1  ZINC000845755710    0.1000
@<TRIPOS>BOND
     1     1     2    1
     2     1    25    1
     3     1    26    1
     4     1    27    1
     5     2    24    1
     6     2     3    1
     7     2    21    1
     8     3    20    1
     9     3     4    1
    10     3    28    1
    11     4     5    1
    12     4    29    1
    13     4    30    1
    14     5     6    1
    15     5    31    1
    16     5    32    1
    17     6     7   am
    18     6    19    1
    19     7     8    2
    20     7     9    1
    21     9    18    1
    22     9    10    2
    23    10    11    1
    24    10    33    1
    25    11    12    1
    26    12    18   ar
    27    12    13   ar
    28    13    14   ar
    29    13    34    1
    30    14    15   ar
    31    14    35    1
    32    15    16    1
    33    15    17   ar
    34    17    18   ar
    35    17    36    1
    36    19    20    1
    37    19    37    1
    38    19    38    1
    39    20    39    1
    40    20    40    1
    41    21    22    1
    42    22    23    1
    43    22    41    1
    44    22    42    1
    45    23    24    1
    46    23    43    1
    47    23    44    1
@<TRIPOS>SUBSTRUCTURE
     1 ZINC000845755710        1 TEMP              0 ****  ****    0 ROOT


##########                                Name:    ZINC000130059363
##########                DOCK_Rotatable_Bonds:                   4
##########                         Heavy_Atoms:                  29
##########                    Molecular_Weight:             389.497
##########                DOCK_Rotatable_Bonds:                   4
##########                       Formal_Charge:          -0.0100003
##########                     HBond_Acceptors:                   5
##########                        HBond_Donors:                   0
##########                         Heavy_Atoms:                  29
##########                          Grid_Score:          -24.839970
##########                     Grid_vdw_energy:          -24.640308
##########                      Grid_es_energy:           -0.199662
##########           Internal_energy_repulsive:           25.188486

@<TRIPOS>MOLECULE
ZINC000130059363
 56 60 1 0 0
SMALL
USER_CHARGES


@<TRIPOS>ATOM
      1 C1        -10.7622   -3.2183   56.8012 C.3     1  ZINC000130059363   -0.1200
      2 C2         -9.9612   -1.9535   56.6288 C.ar    1  ZINC000130059363    0.1900
      3 N3         -9.4122   -1.6846   55.4646 N.ar    1  ZINC000130059363   -0.4800
      4 C4         -8.6984   -0.5825   55.2660 C.ar    1  ZINC000130059363    0.2000
      5 C5         -8.1017   -0.3277   53.9333 C.ar    1  ZINC000130059363   -0.0600
      6 C6         -7.0369    0.5628   53.8019 C.ar    1  ZINC000130059363   -0.1000
      7 C7         -6.4852    0.7957   52.5587 C.ar    1  ZINC000130059363   -0.1200
      8 C8         -6.9868    0.1479   51.4440 C.ar    1  ZINC000130059363   -0.1000
      9 C9         -8.0434   -0.7363   51.5681 C.ar    1  ZINC000130059363   -0.1300
     10 C10        -8.5993   -0.9819   52.8070 C.ar    1  ZINC000130059363   -0.0700
     11 C11        -8.5033    0.3385   56.2950 C.ar    1  ZINC000130059363   -0.1800
     12 C12        -9.0629    0.0941   57.5334 C.ar    1  ZINC000130059363   -0.0400
     13 C13        -9.8144   -1.0763   57.7057 C.ar    1  ZINC000130059363   -0.1900
     14 C14       -10.4338   -1.3831   59.0111 C.2     1  ZINC000130059363    0.5700
     15 O15        -9.9108   -2.1869   59.7582 O.2     1  ZINC000130059363   -0.5200
     16 N16       -11.5789   -0.7718   59.3738 N.am    1  ZINC000130059363   -0.6000
     17 C17       -12.2286    0.1982   58.4807 C.3     1  ZINC000130059363    0.1000
     18 C18       -13.6766   -0.2468   58.2542 C.3     1  ZINC000130059363   -0.1500
     19 C19       -14.3765   -0.4331   59.5957 C.3     1  ZINC000130059363    0.1500
     20 H20       -15.3902   -0.7848   59.4037 H       1  ZINC000130059363    0.0700
     21 C21       -13.6610   -1.4842   60.4421 C.3     1  ZINC000130059363   -0.1100
     22 H22       -13.7060   -2.4553   59.9493 H       1  ZINC000130059363    0.1000
     23 C23       -14.3628   -1.5523   61.8078 C.3     1  ZINC000130059363   -0.1200
     24 C24       -14.1010   -0.2372   62.5461 C.3     1  ZINC000130059363   -0.1400
     25 C25       -14.3822    0.9291   61.6433 C.2     1  ZINC000130059363    0.5200
     26 O26       -14.5300    2.0224   62.1470 O.2     1  ZINC000130059363   -0.5400
     27 N27       -14.4633    0.8238   60.3222 N.am    1  ZINC000130059363   -0.5700
     28 C28       -14.6831    2.0445   59.5425 C.3     1  ZINC000130059363    0.0700
     29 C29       -15.8822    2.0697   58.5926 C.3     1  ZINC000130059363   -0.1800
     30 C30       -15.9122    2.8892   59.8842 C.3     1  ZINC000130059363   -0.1600
     31 C31       -12.2087   -1.0644   60.6673 C.3     1  ZINC000130059363    0.1100
     32 H32       -11.8199   -3.0015   56.6519 H       1  ZINC000130059363    0.0800
     33 H33       -10.4360   -3.9574   56.0694 H       1  ZINC000130059363    0.0800
     34 H34       -10.6099   -3.6105   57.8066 H       1  ZINC000130059363    0.1000
     35 H35        -6.6449    1.0696   54.6714 H       1  ZINC000130059363    0.1300
     36 H36        -5.6604    1.4852   52.4557 H       1  ZINC000130059363    0.1300
     37 H37        -6.5521    0.3335   50.4729 H       1  ZINC000130059363    0.1300
     38 H38        -8.4311   -1.2389   50.6943 H       1  ZINC000130059363    0.1300
     39 H39        -9.4242   -1.6725   52.9028 H       1  ZINC000130059363    0.1400
     40 H40        -7.9212    1.2322   56.1251 H       1  ZINC000130059363    0.1400
     41 H41        -8.9279    0.7897   58.3485 H       1  ZINC000130059363    0.1400
     42 H42       -12.2161    1.1863   58.9408 H       1  ZINC000130059363    0.0700
     43 H43       -11.7011    0.2300   57.5275 H       1  ZINC000130059363    0.0900
     44 H44       -14.2020    0.5115   57.6737 H       1  ZINC000130059363    0.0900
     45 H45       -13.6844   -1.1897   57.7075 H       1  ZINC000130059363    0.0800
     46 H46       -15.4350   -1.6861   61.6641 H       1  ZINC000130059363    0.0800
     47 H47       -13.9620   -2.3847   62.3862 H       1  ZINC000130059363    0.0900
     48 H48       -14.7473   -0.1799   63.4220 H       1  ZINC000130059363    0.1000
     49 H49       -13.0595   -0.2037   62.8657 H       1  ZINC000130059363    0.1000
     50 H50       -13.7816    2.5712   59.2297 H       1  ZINC000130059363    0.1100
     51 H51       -15.7696    2.6130   57.6544 H       1  ZINC000130059363    0.1100
     52 H52       -16.5075    1.1780   58.5476 H       1  ZINC000130059363    0.1000
     53 H53       -16.5572    2.5367   60.6890 H       1  ZINC000130059363    0.1000
     54 H54       -15.8194    3.9717   59.7958 H       1  ZINC000130059363    0.1000
     55 H55       -11.6688   -1.8714   61.1625 H       1  ZINC000130059363    0.1000
     56 H56       -12.1804   -0.1702   61.2900 H       1  ZINC000130059363    0.0700
@<TRIPOS>BOND
     1     1     2    1
     2     1    32    1
     3     1    33    1
     4     1    34    1
     5     2    13   ar
     6     2     3   ar
     7     3     4   ar
     8     4     5    1
     9     4    11   ar
    10     5    10   ar
    11     5     6   ar
    12     6     7   ar
    13     6    35    1
    14     7     8   ar
    15     7    36    1
    16     8     9   ar
    17     8    37    1
    18     9    10   ar
    19     9    38    1
    20    10    39    1
    21    11    12   ar
    22    11    40    1
    23    12    13   ar
    24    12    41    1
    25    13    14    1
    26    14    15    2
    27    14    16   am
    28    16    31    1
    29    16    17    1
    30    17    18    1
    31    17    42    1
    32    17    43    1
    33    18    19    1
    34    18    44    1
    35    18    45    1
    36    19    20    1
    37    19    27    1
    38    19    21    1
    39    21    22    1
    40    21    23    1
    41    21    31    1
    42    23    24    1
    43    23    46    1
    44    23    47    1
    45    24    25    1
    46    24    48    1
    47    24    49    1
    48    25    26    2
    49    25    27   am
    50    27    28    1
    51    28    30    1
    52    28    29    1
    53    28    50    1
    54    29    30    1
    55    29    51    1
    56    29    52    1
    57    30    53    1
    58    30    54    1
    59    31    55    1
    60    31    56    1
@<TRIPOS>SUBSTRUCTURE
     1 ZINC000130059363        1 TEMP              0 ****  ****    0 ROOT


##########                                Name:    ZINC000464752079
##########                DOCK_Rotatable_Bonds:                   7
##########                         Heavy_Atoms:                  29
##########                    Molecular_Weight:             404.413
##########                DOCK_Rotatable_Bonds:                   7
##########                       Formal_Charge:         7.45058e-08
##########                     HBond_Acceptors:                   8
##########                        HBond_Donors:                   1
##########                         Heavy_Atoms:                  29
##########                          Grid_Score:          -24.807346
##########                     Grid_vdw_energy:          -24.445566
##########                      Grid_es_energy:           -0.361781
##########           Internal_energy_repulsive:           16.116083

@<TRIPOS>MOLECULE
ZINC000464752079
 51 54 1 0 0
SMALL
USER_CHARGES


@<TRIPOS>ATOM
      1 C1        -11.1031   -4.0871   57.6437 C.3     1  ZINC000464752079   -0.1200
      2 C2        -11.1615   -3.0689   58.7532 C.ar    1  ZINC000464752079   -0.0800
      3 C3        -10.1248   -2.9776   59.6626 C.ar    1  ZINC000464752079   -0.1200
      4 C4        -10.1785   -2.0435   60.6806 C.ar    1  ZINC000464752079   -0.1200
      5 C5        -11.2687   -1.2008   60.7885 C.ar    1  ZINC000464752079   -0.1300
      6 C6        -12.3053   -1.2916   59.8782 C.ar    1  ZINC000464752079   -0.0900
      7 C7        -12.2497   -2.2225   58.8580 C.ar    1  ZINC000464752079   -0.0800
      8 C8        -13.3797   -2.3214   57.8658 C.3     1  ZINC000464752079    0.2000
      9 H9        -13.0048   -2.6969   56.9137 H       1  ZINC000464752079    0.0900
     10 C10       -14.4734   -3.2653   58.4084 C.3     1  ZINC000464752079   -0.1200
     11 C11       -15.7861   -2.5693   57.9615 C.3     1  ZINC000464752079   -0.1300
     12 C12       -15.4077   -1.0735   58.1000 C.3     1  ZINC000464752079    0.1000
     13 N13       -13.9946   -0.9997   57.6749 N.am    1  ZINC000464752079   -0.6300
     14 C14       -13.3746    0.0971   57.1960 C.2     1  ZINC000464752079    0.7200
     15 O15       -13.9867    1.1418   57.0855 O.2     1  ZINC000464752079   -0.5700
     16 N16       -12.0763    0.0357   56.8396 N.am    1  ZINC000464752079   -0.7400
     17 C17       -11.4021    1.2282   56.3207 C.3     1  ZINC000464752079    0.1900
     18 C18       -10.1882    0.8145   55.5292 C.ar    1  ZINC000464752079   -0.1200
     19 C19       -10.3403    0.2534   54.2752 C.ar    1  ZINC000464752079   -0.0500
     20 C20        -9.2266   -0.1284   53.5452 C.ar    1  ZINC000464752079    0.0100
     21 C21        -7.9521    0.0541   54.0760 C.ar    1  ZINC000464752079    0.0800
     22 C22        -7.8021    0.6178   55.3325 C.ar    1  ZINC000464752079   -0.1800
     23 C23        -8.9196    1.0025   56.0575 C.ar    1  ZINC000464752079    0.1400
     24 O24        -8.7722    1.5561   57.2907 O.3     1  ZINC000464752079   -0.3100
     25 C25        -7.8481    2.6395   57.4092 C.3     1  ZINC000464752079    0.4100
     26 F26        -7.9857    3.4923   56.3087 F       1  ZINC000464752079   -0.2000
     27 F27        -8.1106    3.3500   58.5854 F       1  ZINC000464752079   -0.2000
     28 O28        -7.0342   -0.3975   53.1723 O.3     1  ZINC000464752079   -0.3000
     29 C29        -7.7714   -1.2313   52.2589 C.3     1  ZINC000464752079    0.2100
     30 O30        -9.1067   -0.6948   52.3080 O.3     1  ZINC000464752079   -0.3000
     31 H31       -10.6149   -3.6485   56.7734 H       1  ZINC000464752079    0.0700
     32 H32       -10.5371   -4.9566   57.9779 H       1  ZINC000464752079    0.0700
     33 H33       -12.1149   -4.3926   57.3772 H       1  ZINC000464752079    0.0700
     34 H34        -9.2730   -3.6361   59.5783 H       1  ZINC000464752079    0.1200
     35 H35        -9.3687   -1.9726   61.3916 H       1  ZINC000464752079    0.1200
     36 H36       -11.3109   -0.4716   61.5840 H       1  ZINC000464752079    0.1200
     37 H37       -13.1573   -0.6333   59.9627 H       1  ZINC000464752079    0.1100
     38 H38       -14.3882   -4.2540   57.9572 H       1  ZINC000464752079    0.0900
     39 H39       -14.4221   -3.3305   59.4952 H       1  ZINC000464752079    0.0800
     40 H40       -16.0274   -2.8171   56.9279 H       1  ZINC000464752079    0.0800
     41 H41       -16.6107   -2.8268   58.6262 H       1  ZINC000464752079    0.0900
     42 H42       -16.0312   -0.4625   57.4473 H       1  ZINC000464752079    0.0700
     43 H43       -15.5108   -0.7505   59.1359 H       1  ZINC000464752079    0.0700
     44 H44       -11.5884   -0.7982   56.9268 H       1  ZINC000464752079    0.4000
     45 H45       -12.0856    1.7803   55.6756 H       1  ZINC000464752079    0.0800
     46 H46       -11.0948    1.8626   57.1521 H       1  ZINC000464752079    0.0800
     47 H47       -11.3289    0.1120   53.8640 H       1  ZINC000464752079    0.1500
     48 H48        -6.8146    0.7603   55.7461 H       1  ZINC000464752079    0.1500
     49 H49        -6.8313    2.2480   57.4405 H       1  ZINC000464752079    0.1900
     50 H50        -7.3629   -1.1504   51.2515 H       1  ZINC000464752079    0.1400
     51 H51        -7.7627   -2.2683   52.5947 H       1  ZINC000464752079    0.0900
@<TRIPOS>BOND
     1     1     2    1
     2     1    31    1
     3     1    32    1
     4     1    33    1
     5     2     7   ar
     6     2     3   ar
     7     3     4   ar
     8     3    34    1
     9     4     5   ar
    10     4    35    1
    11     5     6   ar
    12     5    36    1
    13     6     7   ar
    14     6    37    1
    15     7     8    1
    16     8     9    1
    17     8    13    1
    18     8    10    1
    19    10    11    1
    20    10    38    1
    21    10    39    1
    22    11    12    1
    23    11    40    1
    24    11    41    1
    25    12    13    1
    26    12    42    1
    27    12    43    1
    28    13    14   am
    29    14    15    2
    30    14    16   am
    31    16    17    1
    32    16    44    1
    33    17    18    1
    34    17    45    1
    35    17    46    1
    36    18    23   ar
    37    18    19   ar
    38    19    20   ar
    39    19    47    1
    40    20    30    1
    41    20    21   ar
    42    21    22   ar
    43    21    28    1
    44    22    23   ar
    45    22    48    1
    46    23    24    1
    47    24    25    1
    48    25    26    1
    49    25    27    1
    50    25    49    1
    51    28    29    1
    52    29    30    1
    53    29    50    1
    54    29    51    1
@<TRIPOS>SUBSTRUCTURE
     1 ZINC000464752079        1 TEMP              0 ****  ****    0 ROOT


##########                                Name:    ZINC000464706598
##########                DOCK_Rotatable_Bonds:                   4
##########                         Heavy_Atoms:                  26
##########                    Molecular_Weight:             412.286
##########                DOCK_Rotatable_Bonds:                   4
##########                       Formal_Charge:           0.0100001
##########                     HBond_Acceptors:                   5
##########                        HBond_Donors:                   0
##########                         Heavy_Atoms:                  26
##########                          Grid_Score:          -24.696825
##########                     Grid_vdw_energy:          -24.767284
##########                      Grid_es_energy:            0.070459
##########           Internal_energy_repulsive:           57.763138

@<TRIPOS>MOLECULE
ZINC000464706598
 44 47 1 0 0
SMALL
USER_CHARGES


@<TRIPOS>ATOM
      1 O1        -12.4545   -0.6121   56.7801 O.2     1  ZINC000464706598   -0.5000
      2 C2        -11.2521   -0.7662   56.8779 C.2     1  ZINC000464706598    0.5900
      3 C3        -10.4308   -0.9443   55.6669 C.2     1  ZINC000464706598   -0.2800
      4 C4         -9.4192   -0.1107   55.2329 C.2     1  ZINC000464706598    0.1300
      5 N5         -8.9292   -0.6328   54.0939 N.pl3   1  ZINC000464706598   -0.3100
      6 C6         -7.8870   -0.0935   53.3273 C.ar    1  ZINC000464706598    0.1700
      7 C7         -7.0831   -0.9277   52.5618 C.ar    1  ZINC000464706598   -0.1300
      8 C8         -6.0572   -0.3937   51.8069 C.ar    1  ZINC000464706598   -0.0600
      9 C9         -5.8298    0.9711   51.8135 C.ar    1  ZINC000464706598   -0.1000
     10 Br10       -4.4237    1.6986   50.7793 Br      1  ZINC000464706598   -0.0400
     11 C11        -6.6297    1.8045   52.5751 C.ar    1  ZINC000464706598   -0.0700
     12 C12        -7.6602    1.2762   53.3276 C.ar    1  ZINC000464706598   -0.1100
     13 N13        -9.6354   -1.8057   53.8045 N.2     1  ZINC000464706598   -0.2800
     14 C14       -10.5272   -2.0034   54.7361 C.2     1  ZINC000464706598    0.0700
     15 N15       -10.6698   -0.7683   58.0934 N.am    1  ZINC000464706598   -0.6100
     16 C16        -9.2162   -0.9466   58.2366 C.3     1  ZINC000464706598    0.0400
     17 C17        -8.9640   -2.0513   59.2692 C.3     1  ZINC000464706598    0.0500
     18 O18        -9.6877   -1.7519   60.4651 O.3     1  ZINC000464706598   -0.3700
     19 C19       -11.1068   -1.7140   60.2964 C.3     1  ZINC000464706598    0.0500
     20 C20       -11.4681   -0.5864   59.3161 C.3     1  ZINC000464706598    0.1600
     21 H21       -11.2423    0.3794   59.7682 H       1  ZINC000464706598    0.0900
     22 C22       -12.9350   -0.6581   58.9784 C.ar    1  ZINC000464706598   -0.0500
     23 C23       -13.6770    0.5033   58.8703 C.ar    1  ZINC000464706598   -0.1000
     24 C24       -15.0225    0.4377   58.5605 C.ar    1  ZINC000464706598   -0.1100
     25 C25       -15.6260   -0.7894   58.3582 C.ar    1  ZINC000464706598   -0.1200
     26 C26       -14.8839   -1.9507   58.4652 C.ar    1  ZINC000464706598   -0.1100
     27 C27       -13.5374   -1.8848   58.7708 C.ar    1  ZINC000464706598   -0.1000
     28 H28        -9.0837    0.7940   55.7179 H       1  ZINC000464706598    0.1900
     29 H29        -7.2598   -1.9931   52.5569 H       1  ZINC000464706598    0.1400
     30 H30        -5.4316   -1.0421   51.2114 H       1  ZINC000464706598    0.1500
     31 H31        -6.4503    2.8695   52.5782 H       1  ZINC000464706598    0.1500
     32 H32        -8.2845    1.9272   53.9216 H       1  ZINC000464706598    0.1500
     33 H33       -11.2222   -2.8286   54.7841 H       1  ZINC000464706598    0.2100
     34 H34        -8.7855   -1.2351   57.2778 H       1  ZINC000464706598    0.1200
     35 H35        -8.7639   -0.0153   58.5775 H       1  ZINC000464706598    0.0800
     36 H36        -9.3013   -3.0075   58.8692 H       1  ZINC000464706598    0.0600
     37 H37        -7.8984   -2.1047   59.4922 H       1  ZINC000464706598    0.1100
     38 H38       -11.4521   -2.6689   59.9001 H       1  ZINC000464706598    0.0600
     39 H39       -11.5830   -1.5248   61.2584 H       1  ZINC000464706598    0.1100
     40 H40       -13.2054    1.4620   59.0284 H       1  ZINC000464706598    0.1100
     41 H41       -15.6023    1.3450   58.4768 H       1  ZINC000464706598    0.1200
     42 H42       -16.6774   -0.8407   58.1167 H       1  ZINC000464706598    0.1200
     43 H43       -15.3555   -2.9094   58.3075 H       1  ZINC000464706598    0.1200
     44 H44       -12.9576   -2.7922   58.8545 H       1  ZINC000464706598    0.1100
@<TRIPOS>BOND
     1     1     2    2
     2     2     3    1
     3     2    15   am
     4     3    14    1
     5     3     4    2
     6     4     5    1
     7     4    28    1
     8     5     6    1
     9     5    13    1
    10     6    12   ar
    11     6     7   ar
    12     7     8   ar
    13     7    29    1
    14     8     9   ar
    15     8    30    1
    16     9    10    1
    17     9    11   ar
    18    11    12   ar
    19    11    31    1
    20    12    32    1
    21    13    14    2
    22    14    33    1
    23    15    20    1
    24    15    16    1
    25    16    17    1
    26    16    34    1
    27    16    35    1
    28    17    18    1
    29    17    36    1
    30    17    37    1
    31    18    19    1
    32    19    20    1
    33    19    38    1
    34    19    39    1
    35    20    21    1
    36    20    22    1
    37    22    27   ar
    38    22    23   ar
    39    23    24   ar
    40    23    40    1
    41    24    25   ar
    42    24    41    1
    43    25    26   ar
    44    25    42    1
    45    26    27   ar
    46    26    43    1
    47    27    44    1
@<TRIPOS>SUBSTRUCTURE
     1 ZINC000464706598        1 TEMP              0 ****  ****    0 ROOT


##########                                Name:    ZINC001023148918
##########                DOCK_Rotatable_Bonds:                   6
##########                         Heavy_Atoms:                  25
##########                    Molecular_Weight:             348.402
##########                DOCK_Rotatable_Bonds:                   6
##########                       Formal_Charge:           0.0199999
##########                     HBond_Acceptors:                   8
##########                        HBond_Donors:                   2
##########                         Heavy_Atoms:                  25
##########                          Grid_Score:          -24.674372
##########                     Grid_vdw_energy:          -24.788410
##########                      Grid_es_energy:            0.114038
##########           Internal_energy_repulsive:           14.385068

@<TRIPOS>MOLECULE
ZINC001023148918
 49 52 1 0 0
SMALL
USER_CHARGES


@<TRIPOS>ATOM
      1 C1         -3.0875    2.4098   50.6170 C.3     1  ZINC001023148918   -0.0700
      2 C2         -4.3764    1.8215   51.1310 C.2     1  ZINC001023148918    0.0200
      3 N3         -5.2165    1.0893   50.4451 N.2     1  ZINC001023148918   -0.2700
      4 N4         -6.2193    0.7422   51.1687 N.pl3   1  ZINC001023148918   -0.2500
      5 C5         -7.3439   -0.0795   50.7146 C.3     1  ZINC001023148918    0.0800
      6 C6         -6.0771    1.2560   52.4264 C.2     1  ZINC001023148918   -0.0400
      7 C7         -7.0041    1.0922   53.5575 C.2     1  ZINC001023148918    0.6000
      8 O8         -6.8858    1.7899   54.5468 O.2     1  ZINC001023148918   -0.5300
      9 N9         -7.9844    0.1691   53.4972 N.am    1  ZINC001023148918   -0.7000
     10 C10        -8.9071    0.0061   54.6233 C.3     1  ZINC001023148918    0.1500
     11 H11        -8.4046    0.2059   55.5696 H       1  ZINC001023148918    0.1200
     12 C12        -9.5435   -1.4063   54.6198 C.3     1  ZINC001023148918    0.1000
     13 N13       -10.8177   -1.2479   55.3443 N.am    1  ZINC001023148918   -0.6200
     14 C14       -11.4847   -2.2290   55.9838 C.2     1  ZINC001023148918    0.5400
     15 O15       -11.0413   -3.3578   55.9926 O.2     1  ZINC001023148918   -0.5200
     16 C16       -12.7815   -1.9232   56.6880 C.3     1  ZINC001023148918   -0.1400
     17 H17       -13.3287   -1.1398   56.1635 H       1  ZINC001023148918    0.1100
     18 C18       -12.5241   -1.5204   58.1624 C.3     1  ZINC001023148918   -0.1400
     19 C19       -13.2781   -2.6272   58.9590 C.3     1  ZINC001023148918    0.0600
     20 H20       -12.9437   -2.7735   59.9862 H       1  ZINC001023148918    0.1300
     21 C21       -14.7916   -2.2981   58.7895 C.3     1  ZINC001023148918   -0.1500
     22 C22       -15.0649   -2.6903   57.3150 C.3     1  ZINC001023148918   -0.1500
     23 C23       -13.6522   -3.2084   56.8239 C.3     1  ZINC001023148918    0.0900
     24 H24       -13.6724   -3.8708   55.9585 H       1  ZINC001023148918    0.1400
     25 O25       -13.1173   -3.7798   58.0686 O.3     1  ZINC001023148918   -0.3600
     26 C26       -11.2396    0.1575   55.2543 C.3     1  ZINC001023148918    0.0700
     27 C27       -10.1557    0.9117   54.4547 C.3     1  ZINC001023148918    0.0900
     28 H28       -10.4357    0.9896   53.4041 H       1  ZINC001023148918    0.0800
     29 O29        -9.9257    2.2072   55.0122 O.3     1  ZINC001023148918   -0.5500
     30 C30        -4.8832    1.9561   52.4255 C.2     1  ZINC001023148918   -0.1800
     31 H31        -2.2751    1.7012   50.7779 H       1  ZINC001023148918    0.0800
     32 H32        -3.1826    2.6178   49.5513 H       1  ZINC001023148918    0.0700
     33 H33        -2.8729    3.3359   51.1503 H       1  ZINC001023148918    0.0800
     34 H34        -7.0922   -1.1341   50.8272 H       1  ZINC001023148918    0.0900
     35 H35        -8.2260    0.1493   51.3128 H       1  ZINC001023148918    0.1100
     36 H36        -7.5504    0.1347   49.6661 H       1  ZINC001023148918    0.0900
     37 H37        -8.0787   -0.3872   52.7083 H       1  ZINC001023148918    0.4100
     38 H38        -9.7269   -1.7372   53.5976 H       1  ZINC001023148918    0.0800
     39 H39        -8.8975   -2.1146   55.1386 H       1  ZINC001023148918    0.0900
     40 H40       -11.4579   -1.5408   58.3878 H       1  ZINC001023148918    0.0800
     41 H41       -12.9458   -0.5376   58.3735 H       1  ZINC001023148918    0.0900
     42 H42       -15.3960   -2.9006   59.4676 H       1  ZINC001023148918    0.0800
     43 H43       -14.9758   -1.2354   58.9469 H       1  ZINC001023148918    0.0800
     44 H44       -15.8055   -3.4880   57.2584 H       1  ZINC001023148918    0.0800
     45 H45       -15.3851   -1.8229   56.7378 H       1  ZINC001023148918    0.0800
     46 H46       -12.1967    0.2248   54.7367 H       1  ZINC001023148918    0.0800
     47 H47       -11.3256    0.5835   56.2538 H       1  ZINC001023148918    0.0900
     48 H48        -9.2106    2.6980   54.5846 H       1  ZINC001023148918    0.3900
     49 H49        -4.4406    2.4969   53.2490 H       1  ZINC001023148918    0.1600
@<TRIPOS>BOND
     1     1     2    1
     2     1    31    1
     3     1    32    1
     4     1    33    1
     5     2    30    1
     6     2     3    2
     7     3     4    1
     8     4     5    1
     9     4     6    1
    10     5    34    1
    11     5    35    1
    12     5    36    1
    13     6     7    1
    14     6    30    2
    15     7     8    2
    16     7     9   am
    17     9    10    1
    18     9    37    1
    19    10    11    1
    20    10    27    1
    21    10    12    1
    22    12    13    1
    23    12    38    1
    24    12    39    1
    25    13    14   am
    26    13    26    1
    27    14    15    2
    28    14    16    1
    29    16    17    1
    30    16    23    1
    31    16    18    1
    32    18    19    1
    33    18    40    1
    34    18    41    1
    35    19    20    1
    36    19    25    1
    37    19    21    1
    38    21    22    1
    39    21    42    1
    40    21    43    1
    41    22    23    1
    42    22    44    1
    43    22    45    1
    44    23    24    1
    45    23    25    1
    46    26    27    1
    47    26    46    1
    48    26    47    1
    49    27    28    1
    50    27    29    1
    51    29    48    1
    52    30    49    1
@<TRIPOS>SUBSTRUCTURE
     1 ZINC001023148918        1 TEMP              0 ****  ****    0 ROOT


##########                                Name:    ZINC000477669194
##########                DOCK_Rotatable_Bonds:                   6
##########                         Heavy_Atoms:                  26
##########                    Molecular_Weight:             387.483
##########                DOCK_Rotatable_Bonds:                   6
##########                       Formal_Charge:         4.47035e-07
##########                     HBond_Acceptors:                   8
##########                        HBond_Donors:                   2
##########                         Heavy_Atoms:                  26
##########                          Grid_Score:          -24.571402
##########                     Grid_vdw_energy:          -25.367268
##########                      Grid_es_energy:            0.795867
##########           Internal_energy_repulsive:           25.108015

@<TRIPOS>MOLECULE
ZINC000477669194
 43 45 1 0 0
SMALL
USER_CHARGES


@<TRIPOS>ATOM
      1 C1          0.8544    3.3589   51.6717 C.3     1  ZINC000477669194   -0.0800
      2 C2         -0.1207    3.6141   52.7921 C.2     1  ZINC000477669194    0.0500
      3 N3         -1.3783    3.3392   52.7481 N.2     1  ZINC000477669194   -0.4900
      4 C4         -2.0977    3.6274   53.8230 C.2     1  ZINC000477669194    0.1200
      5 C5         -3.5547    3.3655   53.9129 C.ar    1  ZINC000477669194   -0.0600
      6 C6         -4.2540    3.6930   55.0716 C.ar    1  ZINC000477669194   -0.0800
      7 C7         -5.6105    3.4471   55.1506 C.ar    1  ZINC000477669194   -0.1400
      8 C8         -6.2792    2.8763   54.0824 C.ar    1  ZINC000477669194   -0.0900
      9 C9         -5.5957    2.5465   52.9271 C.ar    1  ZINC000477669194   -0.1300
     10 C10        -4.2345    2.7933   52.8312 C.ar    1  ZINC000477669194    0.1800
     11 N11        -3.5418    2.4610   51.6637 N.am    1  ZINC000477669194   -0.6500
     12 C12        -3.3054    3.4029   50.7291 C.2     1  ZINC000477669194    0.5600
     13 O13        -3.6949    4.5420   50.9018 O.2     1  ZINC000477669194   -0.5200
     14 C14        -2.5745    3.0523   49.4970 C.ar    1  ZINC000477669194   -0.1500
     15 C15        -2.0080    1.7819   49.3562 C.ar    1  ZINC000477669194   -0.0600
     16 C16        -1.3270    1.4576   48.2052 C.ar    1  ZINC000477669194   -0.1400
     17 C17        -1.2018    2.3930   47.1817 C.ar    1  ZINC000477669194    0.1700
     18 N18        -0.5130    2.0622   46.0199 N.am    1  ZINC000477669194   -1.0600
     19 S19        -1.3127    1.3468   44.7585 S.o2    1  ZINC000477669194    2.6100
     20 C20        -1.9628   -0.1979   45.4525 C.3     1  ZINC000477669194   -0.6700
     21 O21        -2.3729    2.2450   44.4612 O.2     1  ZINC000477669194   -0.9400
     22 O22        -0.2935    1.0756   43.8062 O.2     1  ZINC000477669194   -0.9500
     23 C23        -1.7651    3.6587   47.3188 C.ar    1  ZINC000477669194   -0.1600
     24 C24        -2.4515    3.9875   48.4652 C.ar    1  ZINC000477669194   -0.0300
     25 C25        -1.3881    4.1794   54.8281 C.2     1  ZINC000477669194   -0.2600
     26 S26         0.2889    4.3022   54.3021 S.3     1  ZINC000477669194    0.1500
     27 H27         1.8502    3.6806   51.9764 H       1  ZINC000477669194    0.0800
     28 H28         0.8713    2.2939   51.4405 H       1  ZINC000477669194    0.0900
     29 H29         0.5466    3.9178   50.7879 H       1  ZINC000477669194    0.0900
     30 H30        -3.7359    4.1384   55.9079 H       1  ZINC000477669194    0.1300
     31 H31        -6.1517    3.7012   56.0500 H       1  ZINC000477669194    0.1300
     32 H32        -7.3402    2.6871   54.1515 H       1  ZINC000477669194    0.1300
     33 H33        -6.1230    2.1005   52.0968 H       1  ZINC000477669194    0.1500
     34 H34        -3.2312    1.5525   51.5259 H       1  ZINC000477669194    0.4200
     35 H35        -2.1044    1.0559   50.1499 H       1  ZINC000477669194    0.1300
     36 H36        -0.8888    0.4766   48.0959 H       1  ZINC000477669194    0.1400
     37 H37         0.4358    2.2505   45.9484 H       1  ZINC000477669194    0.4300
     38 H38        -2.6997    0.0313   46.2223 H       1  ZINC000477669194    0.1300
     39 H39        -2.4334   -0.7820   44.6615 H       1  ZINC000477669194    0.1400
     40 H40        -1.1460   -0.7714   45.8908 H       1  ZINC000477669194    0.1300
     41 H41        -1.6667    4.3821   46.5228 H       1  ZINC000477669194    0.1700
     42 H42        -2.8886    4.9695   48.5707 H       1  ZINC000477669194    0.1500
     43 H43        -1.7778    4.4879   55.7868 H       1  ZINC000477669194    0.1800
@<TRIPOS>BOND
     1     1     2    1
     2     1    27    1
     3     1    28    1
     4     1    29    1
     5     2    26    1
     6     2     3    2
     7     3     4    1
     8     4     5    1
     9     4    25    2
    10     5    10   ar
    11     5     6   ar
    12     6     7   ar
    13     6    30    1
    14     7     8   ar
    15     7    31    1
    16     8     9   ar
    17     8    32    1
    18     9    10   ar
    19     9    33    1
    20    10    11    1
    21    11    12   am
    22    11    34    1
    23    12    13    2
    24    12    14    1
    25    14    24   ar
    26    14    15   ar
    27    15    16   ar
    28    15    35    1
    29    16    17   ar
    30    16    36    1
    31    17    18    1
    32    17    23   ar
    33    18    19   am
    34    18    37    1
    35    19    20    1
    36    19    21    2
    37    19    22    2
    38    20    38    1
    39    20    39    1
    40    20    40    1
    41    23    24   ar
    42    23    41    1
    43    24    42    1
    44    25    26    1
    45    25    43    1
@<TRIPOS>SUBSTRUCTURE
     1 ZINC000477669194        1 TEMP              0 ****  ****    0 ROOT


##########                                Name:    ZINC000469391664
##########                DOCK_Rotatable_Bonds:                   6
##########                         Heavy_Atoms:                  29
##########                    Molecular_Weight:             408.524
##########                DOCK_Rotatable_Bonds:                   6
##########                       Formal_Charge:         -0.00999999
##########                     HBond_Acceptors:                   7
##########                        HBond_Donors:                   0
##########                         Heavy_Atoms:                  29
##########                          Grid_Score:          -24.559052
##########                     Grid_vdw_energy:          -23.984285
##########                      Grid_es_energy:           -0.574767
##########           Internal_energy_repulsive:           23.342991

@<TRIPOS>MOLECULE
ZINC000469391664
 53 56 1 0 0
SMALL
USER_CHARGES


@<TRIPOS>ATOM
      1 C1        -16.7453   -2.1403   59.8914 C.3     1  ZINC000469391664   -0.1500
      2 C2        -15.5609   -2.1029   58.9235 C.3     1  ZINC000469391664   -0.1000
      3 H3        -15.8454   -1.5596   58.0224 H       1  ZINC000469391664    0.0800
      4 C4        -15.1608   -3.5326   58.5520 C.3     1  ZINC000469391664   -0.1300
      5 C5        -13.9974   -3.4906   57.5564 C.3     1  ZINC000469391664    0.1100
      6 N6        -12.9091   -2.6901   58.1341 N.am    1  ZINC000469391664   -0.6100
      7 C7        -11.6620   -3.1925   58.2274 C.2     1  ZINC000469391664    0.5600
      8 O8        -11.4288   -4.3183   57.8313 O.2     1  ZINC000469391664   -0.5000
      9 C9        -10.5799   -2.3767   58.8098 C.ar    1  ZINC000469391664   -0.1100
     10 C10       -10.2553   -2.5025   60.1623 C.ar    1  ZINC000469391664   -0.0900
     11 C11        -9.2428   -1.7376   60.7005 C.ar    1  ZINC000469391664   -0.1000
     12 C12        -8.5442   -0.8428   59.9064 C.ar    1  ZINC000469391664   -0.0900
     13 C13        -8.8539   -0.7068   58.5680 C.ar    1  ZINC000469391664   -0.1000
     14 C14        -9.8665   -1.4734   58.0069 C.ar    1  ZINC000469391664    0.1500
     15 N15       -10.1804   -1.3382   56.6578 N.am    1  ZINC000469391664   -0.5800
     16 C16       -10.0692   -2.4909   55.7606 C.3     1  ZINC000469391664    0.0900
     17 C17       -10.5867   -0.1465   56.1767 C.2     1  ZINC000469391664    0.6100
     18 O18       -10.6790    0.8112   56.9221 O.2     1  ZINC000469391664   -0.5200
     19 C19       -10.9172   -0.0040   54.7563 C.2     1  ZINC000469391664   -0.2600
     20 C20       -10.3628    0.9066   53.9007 C.2     1  ZINC000469391664   -0.0500
     21 C21       -10.8564    0.8200   52.6207 C.2     1  ZINC000469391664   -0.1500
     22 C22       -11.7825   -0.1273   52.4320 C.2     1  ZINC000469391664   -0.2600
     23 S23       -12.0848   -0.9818   53.8775 S.3     1  ZINC000469391664    0.2300
     24 C24       -13.2062   -1.3315   58.6079 C.3     1  ZINC000469391664    0.1000
     25 C25       -14.3784   -1.3980   59.5920 C.3     1  ZINC000469391664    0.1300
     26 H26       -14.0771   -1.9545   60.4796 H       1  ZINC000469391664    0.1000
     27 N27       -14.7719   -0.0402   59.9763 N.pl3   1  ZINC000469391664   -0.4500
     28 C28       -15.5537    0.8156   59.2483 C.2     1  ZINC000469391664   -0.0500
     29 C29       -15.6644    1.9491   59.9670 C.2     1  ZINC000469391664   -0.0300
     30 N30       -14.9691    1.7898   61.1028 N.2     1  ZINC000469391664   -0.4900
     31 C31       -14.4360    0.5987   61.1177 C.2     1  ZINC000469391664    0.1800
     32 H32       -17.0309   -1.1221   60.1557 H       1  ZINC000469391664    0.0600
     33 H33       -17.5879   -2.6419   59.4153 H       1  ZINC000469391664    0.0600
     34 H34       -16.4611   -2.6836   60.7926 H       1  ZINC000469391664    0.0600
     35 H35       -14.8523   -4.0689   59.4494 H       1  ZINC000469391664    0.0700
     36 H36       -16.0105   -4.0418   58.0973 H       1  ZINC000469391664    0.0900
     37 H37       -13.6437   -4.5036   57.3645 H       1  ZINC000469391664    0.1000
     38 H38       -14.3306   -3.0350   56.6239 H       1  ZINC000469391664    0.0800
     39 H39       -10.7973   -3.1980   60.7858 H       1  ZINC000469391664    0.1400
     40 H40        -8.9930   -1.8362   61.7464 H       1  ZINC000469391664    0.1400
     41 H41        -7.7527   -0.2476   60.3373 H       1  ZINC000469391664    0.1400
     42 H42        -8.3049   -0.0068   57.9557 H       1  ZINC000469391664    0.1400
     43 H43       -11.0411   -2.9759   55.6700 H       1  ZINC000469391664    0.0600
     44 H44        -9.7372   -2.1559   54.7779 H       1  ZINC000469391664    0.0900
     45 H45        -9.3464   -3.1987   56.1665 H       1  ZINC000469391664    0.0700
     46 H46        -9.6122    1.6228   54.2006 H       1  ZINC000469391664    0.1500
     47 H47       -10.5214    1.4695   51.8254 H       1  ZINC000469391664    0.1400
     48 H48       -12.2705   -0.3271   51.4894 H       1  ZINC000469391664    0.1600
     49 H49       -12.3306   -0.9199   59.1100 H       1  ZINC000469391664    0.1000
     50 H50       -13.4750   -0.6998   57.7613 H       1  ZINC000469391664    0.0800
     51 H51       -15.9963    0.6196   58.2828 H       1  ZINC000469391664    0.1700
     52 H52       -16.2162    2.8317   59.6791 H       1  ZINC000469391664    0.1700
     53 H53       -13.8223    0.1935   61.9086 H       1  ZINC000469391664    0.2000
@<TRIPOS>BOND
     1     1     2    1
     2     1    32    1
     3     1    33    1
     4     1    34    1
     5     2     3    1
     6     2    25    1
     7     2     4    1
     8     4     5    1
     9     4    35    1
    10     4    36    1
    11     5     6    1
    12     5    37    1
    13     5    38    1
    14     6     7   am
    15     6    24    1
    16     7     8    2
    17     7     9    1
    18     9    14   ar
    19     9    10   ar
    20    10    11   ar
    21    10    39    1
    22    11    12   ar
    23    11    40    1
    24    12    13   ar
    25    12    41    1
    26    13    14   ar
    27    13    42    1
    28    14    15    1
    29    15    16    1
    30    15    17   am
    31    16    43    1
    32    16    44    1
    33    16    45    1
    34    17    18    2
    35    17    19    1
    36    19    23    1
    37    19    20    2
    38    20    21    1
    39    20    46    1
    40    21    22    2
    41    21    47    1
    42    22    23    1
    43    22    48    1
    44    24    25    1
    45    24    49    1
    46    24    50    1
    47    25    26    1
    48    25    27    1
    49    27    31    1
    50    27    28    1
    51    28    29    2
    52    28    51    1
    53    29    30    1
    54    29    52    1
    55    30    31    2
    56    31    53    1
@<TRIPOS>SUBSTRUCTURE
     1 ZINC000469391664        1 TEMP              0 ****  ****    0 ROOT


##########                                Name:    ZINC000986832075
##########                DOCK_Rotatable_Bonds:                   7
##########                         Heavy_Atoms:                  25
##########                    Molecular_Weight:             347.433
##########                DOCK_Rotatable_Bonds:                   7
##########                       Formal_Charge:          -0.0200006
##########                     HBond_Acceptors:                   6
##########                        HBond_Donors:                   1
##########                         Heavy_Atoms:                  25
##########                          Grid_Score:          -24.520266
##########                     Grid_vdw_energy:          -23.392853
##########                      Grid_es_energy:           -1.127413
##########           Internal_energy_repulsive:           40.648788

@<TRIPOS>MOLECULE
ZINC000986832075
 51 53 1 0 0
SMALL
USER_CHARGES


@<TRIPOS>ATOM
      1 C1         -1.8048   -0.8247   46.1457 C.3     1  ZINC000986832075   -0.1700
      2 C2         -0.4229   -0.2817   46.5149 C.3     1  ZINC000986832075    0.1500
      3 H3          0.3420   -0.9932   46.2040 H       1  ZINC000986832075    0.0900
      4 N4         -0.2039    0.9982   45.8365 N.am    1  ZINC000986832075   -0.7200
      5 C5          0.9465    1.2195   45.1702 C.2     1  ZINC000986832075    0.5600
      6 O6          1.8016    0.3569   45.1308 O.2     1  ZINC000986832075   -0.5100
      7 C7          1.1684    2.5132   44.4864 C.ar    1  ZINC000986832075   -0.1300
      8 C8          2.3518    2.7614   43.7835 C.ar    1  ZINC000986832075   -0.1100
      9 C9          2.5175    3.9824   43.1601 C.ar    1  ZINC000986832075    0.0900
     10 N10         1.5805    4.9078   43.2206 N.ar    1  ZINC000986832075   -0.4400
     11 C11         0.4504    4.7184   43.8708 C.ar    1  ZINC000986832075    0.0700
     12 C12         0.1966    3.5216   44.5200 C.ar    1  ZINC000986832075    0.1100
     13 F13        -0.9644    3.3342   45.1849 F       1  ZINC000986832075   -0.1000
     14 C14        -0.3432   -0.0766   48.0290 C.3     1  ZINC000986832075   -0.1000
     15 C15         1.0351   -0.5131   48.5308 C.3     1  ZINC000986832075   -0.1300
     16 C16         1.0993   -0.3388   50.0515 C.3     1  ZINC000986832075    0.1100
     17 N17         0.7477    1.0485   50.3836 N.am    1  ZINC000986832075   -0.6100
     18 C18         1.5687    1.8024   51.1413 C.2     1  ZINC000986832075    0.5200
     19 O19         1.2672    2.9463   51.4085 O.2     1  ZINC000986832075   -0.5300
     20 C20         2.8614    1.2240   51.6563 C.3     1  ZINC000986832075   -0.0800
     21 H21         2.6936    0.2004   51.9912 H       1  ZINC000986832075    0.0900
     22 C22         3.3666    2.0678   52.8284 C.3     1  ZINC000986832075   -0.1400
     23 C23         3.9045    1.2297   50.5369 C.3     1  ZINC000986832075   -0.1400
     24 C24         5.0774    2.2033   50.6692 C.3     1  ZINC000986832075   -0.1800
     25 C25         5.3018    0.7033   50.8707 C.3     1  ZINC000986832075   -0.1700
     26 C26        -0.5159    1.5984   49.8740 C.3     1  ZINC000986832075    0.1000
     27 C27        -0.5618    1.4025   48.3553 C.3     1  ZINC000986832075   -0.1300
     28 H28        -1.8615   -0.9709   45.0670 H       1  ZINC000986832075    0.0600
     29 H29        -1.9677   -1.7770   46.6505 H       1  ZINC000986832075    0.0700
     30 H30        -2.5697   -0.1132   46.4567 H       1  ZINC000986832075    0.0600
     31 H31        -0.8869    1.6863   45.8669 H       1  ZINC000986832075    0.4000
     32 H32         3.1249    2.0091   43.7294 H       1  ZINC000986832075    0.1500
     33 H33         3.4283    4.1822   42.6152 H       1  ZINC000986832075    0.1700
     34 H34        -0.2893    5.5050   43.8943 H       1  ZINC000986832075    0.1800
     35 H35        -1.1131   -0.6739   48.5174 H       1  ZINC000986832075    0.0800
     36 H36         1.1998   -1.5603   48.2773 H       1  ZINC000986832075    0.0700
     37 H37         1.8042    0.1005   48.0616 H       1  ZINC000986832075    0.0800
     38 H38         0.3927   -1.0188   50.5273 H       1  ZINC000986832075    0.0700
     39 H39         2.1088   -0.5538   50.4016 H       1  ZINC000986832075    0.0900
     40 H40         3.4500    3.1090   52.5170 H       1  ZINC000986832075    0.0600
     41 H41         2.6654    1.9921   53.6594 H       1  ZINC000986832075    0.0600
     42 H42         4.3444    1.7033   53.1436 H       1  ZINC000986832075    0.0700
     43 H43         3.5202    1.0373   49.5352 H       1  ZINC000986832075    0.1100
     44 H44         5.4647    2.6518   49.7544 H       1  ZINC000986832075    0.1000
     45 H45         5.1059    2.8398   51.5536 H       1  ZINC000986832075    0.0900
     46 H46         5.4780    0.3530   51.8877 H       1  ZINC000986832075    0.0900
     47 H47         5.8369    0.1650   50.0884 H       1  ZINC000986832075    0.1000
     48 H48        -1.3541    1.0764   50.3353 H       1  ZINC000986832075    0.0700
     49 H49        -0.5720    2.6619   50.1070 H       1  ZINC000986832075    0.0900
     50 H50         0.2222    1.9980   47.8877 H       1  ZINC000986832075    0.0800
     51 H51        -1.5340    1.7186   47.9770 H       1  ZINC000986832075    0.0800
@<TRIPOS>BOND
     1     1     2    1
     2     1    28    1
     3     1    29    1
     4     1    30    1
     5     2     3    1
     6     2     4    1
     7     2    14    1
     8     4     5   am
     9     4    31    1
    10     5     6    2
    11     5     7    1
    12     7    12   ar
    13     7     8   ar
    14     8     9   ar
    15     8    32    1
    16     9    10   ar
    17     9    33    1
    18    10    11   ar
    19    11    12   ar
    20    11    34    1
    21    12    13    1
    22    14    27    1
    23    14    15    1
    24    14    35    1
    25    15    16    1
    26    15    36    1
    27    15    37    1
    28    16    17    1
    29    16    38    1
    30    16    39    1
    31    17    18   am
    32    17    26    1
    33    18    19    2
    34    18    20    1
    35    20    21    1
    36    20    22    1
    37    20    23    1
    38    22    40    1
    39    22    41    1
    40    22    42    1
    41    23    25    1
    42    23    24    1
    43    23    43    1
    44    24    25    1
    45    24    44    1
    46    24    45    1
    47    25    46    1
    48    25    47    1
    49    26    27    1
    50    26    48    1
    51    26    49    1
    52    27    50    1
    53    27    51    1
@<TRIPOS>SUBSTRUCTURE
     1 ZINC000986832075        1 TEMP              0 ****  ****    0 ROOT


##########                                Name:    ZINC001011676549
##########                DOCK_Rotatable_Bonds:                   6
##########                         Heavy_Atoms:                  24
##########                    Molecular_Weight:             330.387
##########                DOCK_Rotatable_Bonds:                   6
##########                       Formal_Charge:        -1.49012e-07
##########                     HBond_Acceptors:                   7
##########                        HBond_Donors:                   1
##########                         Heavy_Atoms:                  24
##########                          Grid_Score:          -24.339584
##########                     Grid_vdw_energy:          -23.337223
##########                      Grid_es_energy:           -1.002360
##########           Internal_energy_repulsive:           11.573890

@<TRIPOS>MOLECULE
ZINC001011676549
 46 48 1 0 0
SMALL
USER_CHARGES


@<TRIPOS>ATOM
      1 C1        -10.3911   -1.9737   57.7093 C.3     1  ZINC001011676549   -0.1700
      2 C2        -10.5123   -0.4774   57.4138 C.3     1  ZINC001011676549    0.1300
      3 H3        -11.5451   -0.1558   57.5477 H       1  ZINC001011676549    0.0900
      4 C4         -9.5876    0.3204   58.3572 C.3     1  ZINC001011676549    0.1400
      5 H5        -10.0461    1.2695   58.6349 H       1  ZINC001011676549    0.1100
      6 N6         -9.2624   -0.4648   59.5505 N.am    1  ZINC001011676549   -0.7200
      7 C7         -8.7735    0.1472   60.6473 C.2     1  ZINC001011676549    0.5200
      8 O8         -8.6014    1.3477   60.6458 O.2     1  ZINC001011676549   -0.5300
      9 C9         -8.4407   -0.6603   61.8753 C.3     1  ZINC001011676549   -0.0900
     10 C10        -8.7713    0.1410   63.1082 C.ar    1  ZINC001011676549   -0.1800
     11 C11       -10.0857    0.4457   63.4252 C.ar    1  ZINC001011676549    0.1600
     12 N12       -10.3377    1.1514   64.5159 N.ar    1  ZINC001011676549   -0.5200
     13 C13        -9.3578    1.5627   65.2954 C.ar    1  ZINC001011676549    0.3000
     14 N14        -8.0966    1.2919   65.0256 N.ar    1  ZINC001011676549   -0.5200
     15 C15        -7.7687    0.5861   63.9552 C.ar    1  ZINC001011676549    0.1600
     16 C16        -8.3236    0.5549   57.4883 C.3     1  ZINC001011676549   -0.1400
     17 C17        -8.9438    0.7432   56.0814 C.3     1  ZINC001011676549    0.1000
     18 N18       -10.0777   -0.2030   56.0364 N.am    1  ZINC001011676549   -0.6100
     19 C19       -10.6189   -0.7278   54.9192 C.2     1  ZINC001011676549    0.5800
     20 O20       -11.5544   -1.5005   55.0017 O.2     1  ZINC001011676549   -0.5300
     21 C21       -10.0779   -0.3661   53.5999 C.2     1  ZINC001011676549   -0.1400
     22 C22       -10.5037    0.7403   53.0175 C.2     1  ZINC001011676549   -0.1500
     23 C23       -10.0140    1.1842   51.6680 C.3     1  ZINC001011676549    0.0900
     24 O24        -8.8233    0.4749   51.3201 O.3     1  ZINC001011676549   -0.3800
     25 C25        -8.9509   -0.9444   51.4679 C.3     1  ZINC001011676549    0.0600
     26 C26        -9.0544   -1.2657   52.9630 C.3     1  ZINC001011676549   -0.1100
     27 H27        -9.3587   -2.2909   57.5614 H       1  ZINC001011676549    0.0600
     28 H28       -10.6858   -2.1654   58.7410 H       1  ZINC001011676549    0.0700
     29 H29       -11.0423   -2.5310   57.0360 H       1  ZINC001011676549    0.0800
     30 H30        -9.3990   -1.4251   59.5512 H       1  ZINC001011676549    0.4100
     31 H31        -9.0238   -1.5813   61.8736 H       1  ZINC001011676549    0.1100
     32 H32        -7.3782   -0.9029   61.8738 H       1  ZINC001011676549    0.1100
     33 H33       -10.8933    0.1120   62.7905 H       1  ZINC001011676549    0.1700
     34 H34        -9.5948    2.1372   66.1787 H       1  ZINC001011676549    0.2000
     35 H35        -6.7332    0.3673   63.7401 H       1  ZINC001011676549    0.1700
     36 H36        -7.7931    1.4530   57.8048 H       1  ZINC001011676549    0.0900
     37 H37        -7.6663   -0.3142   57.5124 H       1  ZINC001011676549    0.0800
     38 H38        -9.2999    1.7659   55.9575 H       1  ZINC001011676549    0.0800
     39 H39        -8.2143    0.4985   55.3094 H       1  ZINC001011676549    0.0800
     40 H40       -11.2325    1.3497   53.5312 H       1  ZINC001011676549    0.1200
     41 H41       -10.7833    0.9869   50.9214 H       1  ZINC001011676549    0.0700
     42 H42        -9.8034    2.2534   51.6935 H       1  ZINC001011676549    0.1100
     43 H43        -9.8483   -1.2871   50.9529 H       1  ZINC001011676549    0.0600
     44 H44        -8.0736   -1.4367   51.0484 H       1  ZINC001011676549    0.1000
     45 H45        -8.0839   -1.1130   53.4351 H       1  ZINC001011676549    0.0900
     46 H46        -9.3605   -2.3040   53.0908 H       1  ZINC001011676549    0.0900
@<TRIPOS>BOND
     1     1     2    1
     2     1    27    1
     3     1    28    1
     4     1    29    1
     5     2     3    1
     6     2    18    1
     7     2     4    1
     8     4     5    1
     9     4     6    1
    10     4    16    1
    11     6     7   am
    12     6    30    1
    13     7     8    2
    14     7     9    1
    15     9    10    1
    16     9    31    1
    17     9    32    1
    18    10    15   ar
    19    10    11   ar
    20    11    12   ar
    21    11    33    1
    22    12    13   ar
    23    13    14   ar
    24    13    34    1
    25    14    15   ar
    26    15    35    1
    27    16    17    1
    28    16    36    1
    29    16    37    1
    30    17    18    1
    31    17    38    1
    32    17    39    1
    33    18    19   am
    34    19    20    2
    35    19    21    1
    36    21    26    1
    37    21    22    2
    38    22    23    1
    39    22    40    1
    40    23    24    1
    41    23    41    1
    42    23    42    1
    43    24    25    1
    44    25    26    1
    45    25    43    1
    46    25    44    1
    47    26    45    1
    48    26    46    1
@<TRIPOS>SUBSTRUCTURE
     1 ZINC001011676549        1 TEMP              0 ****  ****    0 ROOT


##########                                Name:    ZINC000942661662
##########                DOCK_Rotatable_Bonds:                   6
##########                         Heavy_Atoms:                  25
##########                    Molecular_Weight:             343.426
##########                DOCK_Rotatable_Bonds:                   6
##########                       Formal_Charge:           0.0399997
##########                     HBond_Acceptors:                   6
##########                        HBond_Donors:                   1
##########                         Heavy_Atoms:                  25
##########                          Grid_Score:          -24.242275
##########                     Grid_vdw_energy:          -24.137926
##########                      Grid_es_energy:           -0.104349
##########           Internal_energy_repulsive:           25.674194

@<TRIPOS>MOLECULE
ZINC000942661662
 50 52 1 0 0
SMALL
USER_CHARGES


@<TRIPOS>ATOM
      1 C1        -10.9428    2.7119   57.8450 C.3     1  ZINC000942661662   -0.1700
      2 C2        -10.9879    1.1964   58.0505 C.3     1  ZINC000942661662    0.1000
      3 N3         -9.6504    0.7109   58.3994 N.am    1  ZINC000942661662   -0.6000
      4 C4         -9.3592    0.3985   59.6776 C.2     1  ZINC000942661662    0.6000
      5 O5         -8.2489   -0.0046   59.9673 O.2     1  ZINC000942661662   -0.5200
      6 C6        -10.3862    0.5452   60.7244 C.2     1  ZINC000942661662   -0.2400
      7 C7        -10.9646   -0.4494   61.4574 C.2     1  ZINC000942661662    0.0700
      8 C8        -10.6624   -1.9210   61.3396 C.3     1  ZINC000942661662   -0.0900
      9 O9        -11.8448    0.1033   62.2977 O.3     1  ZINC000942661662   -0.1700
     10 C10       -11.8746    1.4371   62.1511 C.2     1  ZINC000942661662   -0.0300
     11 C11       -10.9968    1.7946   61.2013 C.2     1  ZINC000942661662   -0.1900
     12 C12        -8.6295    0.5651   57.3587 C.3     1  ZINC000942661662    0.1400
     13 H13        -8.0652   -0.3575   57.4945 H       1  ZINC000942661662    0.1100
     14 C14        -7.6851    1.7957   57.3297 C.3     1  ZINC000942661662   -0.1400
     15 C15        -7.1895    1.8167   55.8684 C.3     1  ZINC000942661662    0.1000
     16 N16        -8.1739    1.0792   55.0630 N.am    1  ZINC000942661662   -0.6200
     17 C17        -8.0930    0.8537   53.7367 C.2     1  ZINC000942661662    0.6100
     18 O18        -8.9707    0.2287   53.1712 O.2     1  ZINC000942661662   -0.5200
     19 C19        -6.9471    1.3617   52.9750 C.2     1  ZINC000942661662   -0.0600
     20 C20        -6.1652    0.6384   52.0996 C.2     1  ZINC000942661662   -0.0700
     21 C21        -6.3276   -0.8179   51.7475 C.3     1  ZINC000942661662   -0.0900
     22 C22        -5.1934    1.5108   51.5996 C.2     1  ZINC000942661662   -0.2100
     23 C23        -5.3941    2.7248   52.1658 C.2     1  ZINC000942661662    0.0500
     24 C24        -4.5708    3.9600   51.9059 C.3     1  ZINC000942661662   -0.0900
     25 N25        -6.4601    2.6491   52.9994 N.pl3   1  ZINC000942661662   -0.5400
     26 C26        -9.2637    0.6252   55.9467 C.3     1  ZINC000942661662    0.0900
     27 H27       -11.9379    3.0731   57.5854 H       1  ZINC000942661662    0.0700
     28 H28       -10.6099    3.1934   58.7644 H       1  ZINC000942661662    0.0600
     29 H29       -10.2485    2.9487   57.0388 H       1  ZINC000942661662    0.0600
     30 H30       -11.6822    0.9596   58.8567 H       1  ZINC000942661662    0.0900
     31 H31       -11.3208    0.7148   57.1310 H       1  ZINC000942661662    0.0800
     32 H32        -9.8524   -2.1813   62.0211 H       1  ZINC000942661662    0.0900
     33 H33       -11.5521   -2.4962   61.5961 H       1  ZINC000942661662    0.0900
     34 H34       -10.3641   -2.1500   60.3165 H       1  ZINC000942661662    0.1000
     35 H35       -12.5014    2.1148   62.7116 H       1  ZINC000942661662    0.2100
     36 H36       -10.7873    2.7952   60.8529 H       1  ZINC000942661662    0.1600
     37 H37        -8.2333    2.7082   57.5642 H       1  ZINC000942661662    0.1000
     38 H38        -6.8511    1.6581   58.0179 H       1  ZINC000942661662    0.0900
     39 H39        -7.1183    2.8456   55.5159 H       1  ZINC000942661662    0.0700
     40 H40        -6.2161    1.3311   55.8000 H       1  ZINC000942661662    0.0700
     41 H41        -6.9941   -0.9123   50.8902 H       1  ZINC000942661662    0.0700
     42 H42        -5.3547   -1.2425   51.4998 H       1  ZINC000942661662    0.0600
     43 H43        -6.7516   -1.3521   52.5977 H       1  ZINC000942661662    0.0800
     44 H44        -4.4199    1.2608   50.8886 H       1  ZINC000942661662    0.1400
     45 H45        -5.0001    4.5138   51.0709 H       1  ZINC000942661662    0.0800
     46 H46        -4.5684    4.5890   52.7961 H       1  ZINC000942661662    0.0700
     47 H47        -3.5485    3.6707   51.6627 H       1  ZINC000942661662    0.0900
     48 H48        -6.8170    3.3789   53.5293 H       1  ZINC000942661662    0.4100
     49 H49        -9.6116   -0.3623   55.6434 H       1  ZINC000942661662    0.0800
     50 H50       -10.0869    1.3394   55.9314 H       1  ZINC000942661662    0.1000
@<TRIPOS>BOND
     1     1     2    1
     2     1    27    1
     3     1    28    1
     4     1    29    1
     5     2     3    1
     6     2    30    1
     7     2    31    1
     8     3     4   am
     9     3    12    1
    10     4     5    2
    11     4     6    1
    12     6    11    1
    13     6     7    2
    14     7     8    1
    15     7     9    1
    16     8    32    1
    17     8    33    1
    18     8    34    1
    19     9    10    1
    20    10    11    2
    21    10    35    1
    22    11    36    1
    23    12    13    1
    24    12    26    1
    25    12    14    1
    26    14    15    1
    27    14    37    1
    28    14    38    1
    29    15    16    1
    30    15    39    1
    31    15    40    1
    32    16    17   am
    33    16    26    1
    34    17    18    2
    35    17    19    1
    36    19    25    1
    37    19    20    2
    38    20    21    1
    39    20    22    1
    40    21    41    1
    41    21    42    1
    42    21    43    1
    43    22    23    2
    44    22    44    1
    45    23    24    1
    46    23    25    1
    47    24    45    1
    48    24    46    1
    49    24    47    1
    50    25    48    1
    51    26    49    1
    52    26    50    1
@<TRIPOS>SUBSTRUCTURE
     1 ZINC000942661662        1 TEMP              0 ****  ****    0 ROOT


##########                                Name:    ZINC000931749147
##########                DOCK_Rotatable_Bonds:                   5
##########                         Heavy_Atoms:                  25
##########                    Molecular_Weight:             354.397
##########                DOCK_Rotatable_Bonds:                   5
##########                       Formal_Charge:        -4.76837e-07
##########                     HBond_Acceptors:                   7
##########                        HBond_Donors:                   1
##########                         Heavy_Atoms:                  25
##########                          Grid_Score:          -24.230957
##########                     Grid_vdw_energy:          -23.226961
##########                      Grid_es_energy:           -1.003997
##########           Internal_energy_repulsive:           83.122353

@<TRIPOS>MOLECULE
ZINC000931749147
 49 51 1 0 0
SMALL
USER_CHARGES


@<TRIPOS>ATOM
      1 C1        -10.1695    3.3050   59.1571 C.3     1  ZINC000931749147   -0.1100
      2 C2         -9.7870    1.9678   59.7373 C.ar    1  ZINC000931749147   -0.1300
      3 C3         -8.6249    1.3353   59.3178 C.ar    1  ZINC000931749147    0.1800
      4 N4         -7.8064    1.9393   58.3551 N.am    1  ZINC000931749147   -0.6800
      5 C5         -7.8566    1.5267   57.0731 C.2     1  ZINC000931749147    0.7100
      6 O6         -8.6126    0.6299   56.7522 O.2     1  ZINC000931749147   -0.5500
      7 N7         -7.0690    2.1079   56.1467 N.am    1  ZINC000931749147   -0.6200
      8 C8         -6.1464    3.1947   56.5111 C.3     1  ZINC000931749147    0.0700
      9 C9         -6.3655    4.3608   55.5404 C.3     1  ZINC000931749147    0.0500
     10 O10        -6.2791    3.8780   54.1975 O.3     1  ZINC000931749147   -0.3700
     11 C11        -7.2783    2.9141   53.8567 C.3     1  ZINC000931749147    0.0500
     12 C12        -7.1018    1.6702   54.7421 C.3     1  ZINC000931749147    0.1300
     13 H13        -6.1692    1.1671   54.4868 H       1  ZINC000931749147    0.0900
     14 C14        -8.2777    0.7147   54.5289 C.3     1  ZINC000931749147   -0.1100
     15 C15        -8.4560    0.4516   53.0322 C.3     1  ZINC000931749147   -0.1000
     16 C16        -7.1751   -0.1678   52.4647 C.3     1  ZINC000931749147   -0.1500
     17 C17        -7.3901   -0.5000   50.9859 C.3     1  ZINC000931749147    0.0600
     18 O18        -8.5050   -1.3843   50.8547 O.3     1  ZINC000931749147   -0.3800
     19 C19        -9.7397   -0.8404   51.3256 C.3     1  ZINC000931749147    0.0600
     20 C20        -9.6192   -0.5219   52.8182 C.3     1  ZINC000931749147   -0.1500
     21 C21        -8.2745    0.1032   59.8538 C.ar    1  ZINC000931749147   -0.1200
     22 C22        -9.0821   -0.4916   60.8035 C.ar    1  ZINC000931749147   -0.1100
     23 C23       -10.2410    0.1392   61.2220 C.ar    1  ZINC000931749147    0.0500
     24 F24       -11.0293   -0.4445   62.1511 F       1  ZINC000931749147   -0.1300
     25 C25       -10.5907    1.3723   60.6928 C.ar    1  ZINC000931749147    0.0900
     26 F26       -11.7221    1.9867   61.1021 F       1  ZINC000931749147   -0.1200
     27 H27        -9.7312    4.1011   59.7588 H       1  ZINC000931749147    0.0800
     28 H28        -9.7993    3.3766   58.1344 H       1  ZINC000931749147    0.0700
     29 H29       -11.2550    3.4045   59.1581 H       1  ZINC000931749147    0.0800
     30 H30        -7.2033    2.6547   58.6110 H       1  ZINC000931749147    0.4100
     31 H31        -6.3497    3.5226   57.5305 H       1  ZINC000931749147    0.0800
     32 H32        -5.1173    2.8433   56.4362 H       1  ZINC000931749147    0.0900
     33 H33        -7.3514    4.7942   55.7087 H       1  ZINC000931749147    0.0600
     34 H34        -5.6006    5.1197   55.7044 H       1  ZINC000931749147    0.1100
     35 H35        -8.2675    3.3423   54.0188 H       1  ZINC000931749147    0.0600
     36 H36        -7.1700    2.6322   52.8093 H       1  ZINC000931749147    0.1100
     37 H37        -8.0791   -0.2261   55.0421 H       1  ZINC000931749147    0.1100
     38 H38        -9.1870    1.1625   54.9299 H       1  ZINC000931749147    0.0700
     39 H39        -8.6670    1.3902   52.5196 H       1  ZINC000931749147    0.0700
     40 H40        -6.3532    0.5411   52.5630 H       1  ZINC000931749147    0.0700
     41 H41        -6.9381   -1.0800   53.0122 H       1  ZINC000931749147    0.0700
     42 H42        -7.5872    0.4180   50.4319 H       1  ZINC000931749147    0.0500
     43 H43        -6.4963   -0.9803   50.5874 H       1  ZINC000931749147    0.0900
     44 H44        -9.9675    0.0731   50.7762 H       1  ZINC000931749147    0.0500
     45 H45       -10.5386   -1.5659   51.1721 H       1  ZINC000931749147    0.0900
     46 H46        -9.4314   -1.4413   53.3728 H       1  ZINC000931749147    0.0700
     47 H47       -10.5449   -0.0661   53.1693 H       1  ZINC000931749147    0.0700
     48 H48        -7.3707   -0.3901   59.5280 H       1  ZINC000931749147    0.1800
     49 H49        -8.8091   -1.4501   61.2200 H       1  ZINC000931749147    0.1500
@<TRIPOS>BOND
     1     1     2    1
     2     1    27    1
     3     1    28    1
     4     1    29    1
     5     2    25   ar
     6     2     3   ar
     7     3     4    1
     8     3    21   ar
     9     4     5   am
    10     4    30    1
    11     5     6    2
    12     5     7   am
    13     7    12    1
    14     7     8    1
    15     8     9    1
    16     8    31    1
    17     8    32    1
    18     9    10    1
    19     9    33    1
    20     9    34    1
    21    10    11    1
    22    11    12    1
    23    11    35    1
    24    11    36    1
    25    12    13    1
    26    12    14    1
    27    14    15    1
    28    14    37    1
    29    14    38    1
    30    15    20    1
    31    15    16    1
    32    15    39    1
    33    16    17    1
    34    16    40    1
    35    16    41    1
    36    17    18    1
    37    17    42    1
    38    17    43    1
    39    18    19    1
    40    19    20    1
    41    19    44    1
    42    19    45    1
    43    20    46    1
    44    20    47    1
    45    21    22   ar
    46    21    48    1
    47    22    23   ar
    48    22    49    1
    49    23    24    1
    50    23    25   ar
    51    25    26    1
@<TRIPOS>SUBSTRUCTURE
     1 ZINC000931749147        1 TEMP              0 ****  ****    0 ROOT


##########                                Name:    ZINC000828026236
##########                DOCK_Rotatable_Bonds:                   1
##########                         Heavy_Atoms:                  19
##########                    Molecular_Weight:             383.045
##########                DOCK_Rotatable_Bonds:                   1
##########                       Formal_Charge:                   0
##########                     HBond_Acceptors:                   5
##########                        HBond_Donors:                   0
##########                         Heavy_Atoms:                  19
##########                          Grid_Score:          -24.019321
##########                     Grid_vdw_energy:          -24.131742
##########                      Grid_es_energy:            0.112422
##########           Internal_energy_repulsive:            2.053065

@<TRIPOS>MOLECULE
ZINC000828026236
 28 30 1 0 0
SMALL
USER_CHARGES


@<TRIPOS>ATOM
      1 N1         -5.4237   -0.3498   51.4880 N.1     1  ZINC000828026236   -0.3800
      2 C2         -5.1572    0.7511   51.5743 C.1     1  ZINC000828026236    0.2600
      3 C3         -4.8212    2.1388   51.6831 C.ar    1  ZINC000828026236   -0.0500
      4 C4         -5.5276    2.9768   52.5530 C.ar    1  ZINC000828026236    0.0100
      5 C5         -5.1635    4.3112   52.6212 C.ar    1  ZINC000828026236   -0.1600
      6 Br6        -6.0815    5.4913   53.7791 Br      1  ZINC000828026236   -0.0100
      7 C7         -4.1224    4.7742   51.8361 C.ar    1  ZINC000828026236    0.1800
      8 N8         -3.4689    3.9674   51.0222 N.ar    1  ZINC000828026236   -0.5000
      9 C9         -3.7717    2.6829   50.9223 C.ar    1  ZINC000828026236    0.3600
     10 N10        -3.0588    1.8732   50.0548 N.3     1  ZINC000828026236   -0.4900
     11 C11        -1.6164    2.1381   50.1522 C.3     1  ZINC000828026236    0.0500
     12 C12        -0.8361    1.0016   49.4793 C.3     1  ZINC000828026236    0.1100
     13 N13        -1.4117    0.7739   48.1513 N.pl3   1  ZINC000828026236   -0.4400
     14 C14        -0.8781    0.0986   47.0977 C.2     1  ZINC000828026236   -0.0300
     15 Br15        0.8028   -0.7660   47.0445 Br      1  ZINC000828026236    0.0200
     16 C16        -1.7826    0.1658   46.0974 C.2     1  ZINC000828026236    0.0300
     17 N17        -2.8409    0.8671   46.5383 N.2     1  ZINC000828026236   -0.4700
     18 C18        -2.6291    1.2338   47.7660 C.2     1  ZINC000828026236    0.2300
     19 C19        -3.5371    2.0326   48.6705 C.3     1  ZINC000828026236    0.1500
     20 H20        -6.3372    2.5926   53.1559 H       1  ZINC000828026236    0.1600
     21 H21        -3.8399    5.8151   51.8904 H       1  ZINC000828026236    0.1800
     22 H22        -1.3862    3.0803   49.6548 H       1  ZINC000828026236    0.0700
     23 H23        -1.3296    2.2032   51.2018 H       1  ZINC000828026236    0.1100
     24 H24         0.2125    1.2827   49.3822 H       1  ZINC000828026236    0.1100
     25 H25        -0.9200    0.0938   50.0769 H       1  ZINC000828026236    0.1000
     26 H26        -1.6744   -0.2680   45.1143 H       1  ZINC000828026236    0.1800
     27 H27        -4.5583    1.6603   48.5888 H       1  ZINC000828026236    0.1200
     28 H28        -3.5046    3.0849   48.3886 H       1  ZINC000828026236    0.1000
@<TRIPOS>BOND
     1     1     2    3
     2     2     3    1
     3     3     9   ar
     4     3     4   ar
     5     4     5   ar
     6     4    20    1
     7     5     6    1
     8     5     7   ar
     9     7     8   ar
    10     7    21    1
    11     8     9   ar
    12     9    10    1
    13    10    19    1
    14    10    11    1
    15    11    12    1
    16    11    22    1
    17    11    23    1
    18    12    13    1
    19    12    24    1
    20    12    25    1
    21    13    18    1
    22    13    14    1
    23    14    15    1
    24    14    16    2
    25    16    17    1
    26    16    26    1
    27    17    18    2
    28    18    19    1
    29    19    27    1
    30    19    28    1
@<TRIPOS>SUBSTRUCTURE
     1 ZINC000828026236        1 TEMP              0 ****  ****    0 ROOT


##########                                Name:    ZINC001211202056
##########                DOCK_Rotatable_Bonds:                   4
##########                         Heavy_Atoms:                  23
##########                    Molecular_Weight:             386.181
##########                DOCK_Rotatable_Bonds:                   4
##########                       Formal_Charge:           0.0199999
##########                     HBond_Acceptors:                  11
##########                        HBond_Donors:                   3
##########                         Heavy_Atoms:                  23
##########                          Grid_Score:          -23.965120
##########                     Grid_vdw_energy:          -24.152315
##########                      Grid_es_energy:            0.187195
##########           Internal_energy_repulsive:            6.016556

@<TRIPOS>MOLECULE
ZINC001211202056
 31 32 1 0 0
SMALL
USER_CHARGES


@<TRIPOS>ATOM
      1 N1          1.8680    4.6227   43.7571 N.pl3   1  ZINC001211202056   -0.8500
      2 C2          0.9024    3.7043   44.1782 C.ar    1  ZINC001211202056    0.2900
      3 C3         -0.2984    4.1528   44.7116 C.ar    1  ZINC001211202056   -0.2000
      4 C4         -1.2510    3.2423   45.1272 C.ar    1  ZINC001211202056    0.0400
      5 C5         -1.0099    1.8859   45.0128 C.ar    1  ZINC001211202056   -0.7300
      6 S6         -2.2279    0.7288   45.5441 S.o2    1  ZINC001211202056    2.6900
      7 O7         -3.3100    1.4929   46.0583 O.2     1  ZINC001211202056   -0.9400
      8 O8         -2.3733   -0.2131   44.4902 O.2     1  ZINC001211202056   -0.9300
      9 N9         -1.5895   -0.1003   46.8276 N.am    1  ZINC001211202056   -1.0500
     10 C10        -1.2026    0.5874   47.9813 C.ar    1  ZINC001211202056    0.1600
     11 C11        -2.1498    1.2372   48.7673 C.ar    1  ZINC001211202056   -0.1200
     12 C12        -1.7176    1.9054   49.9021 C.ar    1  ZINC001211202056   -0.0800
     13 C13        -0.3717    1.9054   50.2145 C.ar    1  ZINC001211202056    0.0400
     14 C14         0.1047    2.6302   51.4469 C.3     1  ZINC001211202056    0.5300
     15 F15         1.3602    2.1389   51.8207 F       1  ZINC001211202056   -0.1700
     16 F16         0.2018    3.9990   51.1748 F       1  ZINC001211202056   -0.1600
     17 F17        -0.8055    2.4255   52.4894 F       1  ZINC001211202056   -0.1700
     18 N18         0.5024    1.2799   49.4495 N.ar    1  ZINC001211202056   -0.4100
     19 C19         0.1339    0.6281   48.3641 C.ar    1  ZINC001211202056    0.1600
     20 Cl20        1.3300   -0.1768   47.3969 Cl      1  ZINC001211202056    0.0000
     21 C21         0.1851    1.4348   44.4820 C.ar    1  ZINC001211202056    0.0400
     22 C22         1.1397    2.3397   44.0588 C.ar    1  ZINC001211202056   -0.1400
     23 Cl23        2.6394    1.7732   43.3925 Cl      1  ZINC001211202056   -0.0500
     24 H24         2.7050    4.3082   43.3809 H       1  ZINC001211202056    0.4100
     25 H25         1.6996    5.5745   43.8373 H       1  ZINC001211202056    0.4100
     26 H26        -0.4876    5.2121   44.8021 H       1  ZINC001211202056    0.1400
     27 H27        -2.1852    3.5908   45.5422 H       1  ZINC001211202056    0.1500
     28 H28        -1.4840   -1.0633   46.7787 H       1  ZINC001211202056    0.4400
     29 H29        -3.1959    1.2213   48.4994 H       1  ZINC001211202056    0.2000
     30 H30        -2.4250    2.4205   50.5350 H       1  ZINC001211202056    0.1700
     31 H31         0.3703    0.3745   44.3941 H       1  ZINC001211202056    0.1500
@<TRIPOS>BOND
     1     1     2    1
     2     1    24    1
     3     1    25    1
     4     2    22   ar
     5     2     3   ar
     6     3     4   ar
     7     3    26    1
     8     4     5   ar
     9     4    27    1
    10     5     6    1
    11     5    21   ar
    12     6     7    2
    13     6     8    2
    14     6     9   am
    15     9    10    1
    16     9    28    1
    17    10    19   ar
    18    10    11   ar
    19    11    12   ar
    20    11    29    1
    21    12    13   ar
    22    12    30    1
    23    13    14    1
    24    13    18   ar
    25    14    15    1
    26    14    16    1
    27    14    17    1
    28    18    19   ar
    29    19    20    1
    30    21    22   ar
    31    21    31    1
    32    22    23    1
@<TRIPOS>SUBSTRUCTURE
     1 ZINC001211202056        1 TEMP              0 ****  ****    0 ROOT


##########                                Name:    ZINC000013551438
##########                DOCK_Rotatable_Bonds:                   5
##########                         Heavy_Atoms:                  27
##########                    Molecular_Weight:             377.467
##########                DOCK_Rotatable_Bonds:                   5
##########                       Formal_Charge:          -0.0300005
##########                     HBond_Acceptors:                   6
##########                        HBond_Donors:                   1
##########                         Heavy_Atoms:                  27
##########                          Grid_Score:          -23.740067
##########                     Grid_vdw_energy:          -23.943193
##########                      Grid_es_energy:            0.203128
##########           Internal_energy_repulsive:           13.294890

@<TRIPOS>MOLECULE
ZINC000013551438
 46 49 1 0 0
SMALL
USER_CHARGES


@<TRIPOS>ATOM
      1 C1         -7.5799    0.4363   63.5931 C.3     1  <0>         0.0300
      2 O2         -8.2214   -0.2217   62.4988 O.3     1  <0>        -0.3200
      3 C3         -9.5697   -0.0774   62.3963 C.ar    1  <0>         0.1000
      4 C4        -10.2686    0.6242   63.3746 C.ar    1  <0>        -0.1800
      5 C5        -11.6342    0.7791   63.2856 C.ar    1  <0>        -0.0900
      6 C6        -12.3276    0.2323   62.2108 C.ar    1  <0>         0.0700
      7 C7        -11.6237   -0.4758   61.2218 C.ar    1  <0>        -0.0400
      8 C8        -10.2404   -0.6226   61.3187 C.ar    1  <0>        -0.1100
      9 C9        -12.6298   -0.9176   60.2431 C.2     1  <0>        -0.1200
     10 C10       -12.3797   -1.7053   59.0110 C.2     1  <0>         0.1700
     11 C11       -13.1017   -2.7917   58.6780 C.2     1  <0>        -0.3000
     12 S12       -12.4760   -3.4157   57.1542 S.3     1  <0>         0.2500
     13 C13       -11.3095   -2.1676   57.1049 C.2     1  <0>         0.2400
     14 N14       -10.3708   -2.0000   56.0956 N.am    1  <0>        -0.6200
     15 C15       -10.0738   -0.7631   55.6502 C.2     1  <0>         0.5600
     16 O16       -10.6266    0.2059   56.1332 O.2     1  <0>        -0.5000
     17 C17        -9.0760   -0.5848   54.5746 C.ar    1  <0>        -0.1400
     18 C18        -8.0263    0.3213   54.7354 C.ar    1  <0>        -0.0800
     19 C19        -7.0979    0.4826   53.7277 C.ar    1  <0>        -0.1300
     20 C20        -7.2058   -0.2513   52.5597 C.ar    1  <0>        -0.0800
     21 C21        -8.2441   -1.1506   52.3937 C.ar    1  <0>        -0.1300
     22 C22        -9.1758   -1.3259   53.3958 C.ar    1  <0>        -0.0500
     23 N23       -11.4286   -1.3968   58.1386 N.2     1  <0>        -0.5000
     24 C24       -13.8282   -0.4669   60.6844 C.2     1  <0>         0.1300
     25 C25       -15.1473   -0.6889   59.9903 C.3     1  <0>        -0.0900
     26 N26       -13.6608    0.2194   61.8558 N.pl3   1  <0>        -0.4800
     27 C27       -14.7396    0.8482   62.6219 C.3     1  <0>         0.0800
     28 H28        -7.9868    0.0607   64.5320 H       1  <0>         0.0500
     29 H29        -6.5082    0.2401   63.5573 H       1  <0>         0.1000
     30 H30        -7.7552    1.5099   63.5248 H       1  <0>         0.0500
     31 H31        -9.7351    1.0504   64.2114 H       1  <0>         0.1300
     32 H32       -12.1667    1.3250   64.0504 H       1  <0>         0.1200
     33 H33        -9.6975   -1.1665   60.5599 H       1  <0>         0.1300
     34 H34       -13.9209   -3.2077   59.2456 H       1  <0>         0.1800
     35 H35        -9.9288   -2.7731   55.7110 H       1  <0>         0.4200
     36 H36        -7.9412    0.8949   55.6465 H       1  <0>         0.1300
     37 H37        -6.2856    1.1834   53.8507 H       1  <0>         0.1300
     38 H38        -6.4764   -0.1212   51.7739 H       1  <0>         0.1300
     39 H39        -8.3226   -1.7201   51.4793 H       1  <0>         0.1300
     40 H40        -9.9856   -2.0284   53.2651 H       1  <0>         0.1400
     41 H41       -15.6393   -1.5633   60.4162 H       1  <0>         0.0800
     42 H42       -15.7814    0.1871   60.1264 H       1  <0>         0.0700
     43 H43       -14.9752   -0.8511   58.9263 H       1  <0>         0.0800
     44 H44       -15.1390    0.1332   63.3411 H       1  <0>         0.0700
     45 H45       -14.3501    1.7175   63.1518 H       1  <0>         0.0800
     46 H46       -15.5325    1.1617   61.9428 H       1  <0>         0.0800
@<TRIPOS>BOND
     1     1     2    1
     2     1    28    1
     3     1    29    1
     4     1    30    1
     5     2     3    1
     6     3     8   ar
     7     3     4   ar
     8     4     5   ar
     9     4    31    1
    10     5     6   ar
    11     5    32    1
    12     6    26    1
    13     6     7   ar
    14     7     8   ar
    15     7     9    1
    16     8    33    1
    17     9    10    1
    18     9    24    2
    19    10    23    1
    20    10    11    2
    21    11    12    1
    22    11    34    1
    23    12    13    1
    24    13    14    1
    25    13    23    2
    26    14    15   am
    27    14    35    1
    28    15    16    2
    29    15    17    1
    30    17    22   ar
    31    17    18   ar
    32    18    19   ar
    33    18    36    1
    34    19    20   ar
    35    19    37    1
    36    20    21   ar
    37    20    38    1
    38    21    22   ar
    39    21    39    1
    40    22    40    1
    41    24    25    1
    42    24    26    1
    43    25    41    1
    44    25    42    1
    45    25    43    1
    46    26    27    1
    47    27    44    1
    48    27    45    1
    49    27    46    1
@<TRIPOS>SUBSTRUCTURE
     1 <0>         1 TEMP              0 ****  ****    0 ROOT


##########                                Name:    ZINC000345028113
##########                DOCK_Rotatable_Bonds:                   5
##########                         Heavy_Atoms:                  21
##########                    Molecular_Weight:             331.838
##########                DOCK_Rotatable_Bonds:                   5
##########                       Formal_Charge:         4.47035e-07
##########                     HBond_Acceptors:                   6
##########                        HBond_Donors:                   0
##########                         Heavy_Atoms:                  21
##########                          Grid_Score:          -23.667870
##########                     Grid_vdw_energy:          -23.529383
##########                      Grid_es_energy:           -0.138488
##########           Internal_energy_repulsive:           18.512770

@<TRIPOS>MOLECULE
ZINC000345028113
 40 41 1 0 0
SMALL
USER_CHARGES


@<TRIPOS>ATOM
      1 C1        -12.3653   -3.0687   57.5774 C.3     1  ZINC000345028113   -0.1700
      2 C2        -10.9025   -2.9471   57.1455 C.3     1  ZINC000345028113    0.1400
      3 H3        -10.5443   -3.9164   56.7989 H       1  ZINC000345028113    0.1100
      4 C4        -10.0554   -2.4852   58.3360 C.3     1  ZINC000345028113   -0.0700
      5 H5         -9.0074   -2.4345   58.0408 H       1  ZINC000345028113    0.0900
      6 C6        -10.2149   -3.4735   59.4931 C.3     1  ZINC000345028113   -0.1400
      7 S7        -10.6225   -0.8383   58.8546 S.3     1  ZINC000345028113   -0.2400
      8 C8        -10.5102    0.1140   57.3107 C.3     1  ZINC000345028113   -0.1100
      9 C9        -11.3114   -0.6110   56.2240 C.3     1  ZINC000345028113    0.1000
     10 N10       -10.7937   -1.9704   56.0607 N.am    1  ZINC000345028113   -0.6100
     11 C11       -10.2107   -2.3266   54.8990 C.2     1  ZINC000345028113    0.5200
     12 O12        -9.7782   -3.4508   54.7573 O.2     1  ZINC000345028113   -0.5300
     13 C13       -10.0961   -1.3281   53.7761 C.3     1  ZINC000345028113   -0.1400
     14 C14        -8.9725   -0.3373   54.0874 C.3     1  ZINC000345028113    0.0700
     15 O15        -8.8505    0.5974   53.0134 O.3     1  ZINC000345028113   -0.3000
     16 C16        -7.5907    0.9372   52.6309 C.ar    1  ZINC000345028113    0.1300
     17 C17        -6.7515   -0.0185   52.0791 C.ar    1  ZINC000345028113   -0.1700
     18 C18        -5.4714    0.3283   51.6903 C.ar    1  ZINC000345028113   -0.1100
     19 C19        -5.0264    1.6291   51.8514 C.ar    1  ZINC000345028113    0.0800
     20 F20        -3.7749    1.9662   51.4703 F       1  ZINC000345028113   -0.1300
     21 C21        -5.8629    2.5853   52.4024 C.ar    1  ZINC000345028113   -0.1100
     22 C22        -7.1456    2.2429   52.7873 C.ar    1  ZINC000345028113   -0.0400
     23 Cl23       -8.1944    3.4415   53.4779 Cl      1  ZINC000345028113   -0.0400
     24 H24       -12.9680   -3.3973   56.7306 H       1  ZINC000345028113    0.0600
     25 H25       -12.4463   -3.7960   58.3851 H       1  ZINC000345028113    0.0800
     26 H26       -12.7237   -2.0994   57.9240 H       1  ZINC000345028113    0.0800
     27 H27        -9.8841   -4.4621   59.1747 H       1  ZINC000345028113    0.0800
     28 H28        -9.6116   -3.1433   60.3388 H       1  ZINC000345028113    0.0700
     29 H29       -11.2627   -3.5191   59.7900 H       1  ZINC000345028113    0.0700
     30 H30       -10.9233    1.1108   57.4654 H       1  ZINC000345028113    0.1200
     31 H31        -9.4670    0.1920   57.0046 H       1  ZINC000345028113    0.0900
     32 H32       -12.3610   -0.6544   56.5146 H       1  ZINC000345028113    0.0900
     33 H33       -11.2173   -0.0708   55.2820 H       1  ZINC000345028113    0.1000
     34 H34        -9.8720   -1.8510   52.8463 H       1  ZINC000345028113    0.1100
     35 H35       -11.0376   -0.7888   53.6719 H       1  ZINC000345028113    0.1100
     36 H36        -9.2039    0.1966   55.0091 H       1  ZINC000345028113    0.0800
     37 H37        -8.0337   -0.8782   54.2067 H       1  ZINC000345028113    0.0800
     38 H38        -7.0978   -1.0337   51.9534 H       1  ZINC000345028113    0.1500
     39 H39        -4.8176   -0.4163   51.2608 H       1  ZINC000345028113    0.1500
     40 H40        -5.5143    3.5999   52.5277 H       1  ZINC000345028113    0.1500
@<TRIPOS>BOND
     1     1     2    1
     2     1    24    1
     3     1    25    1
     4     1    26    1
     5     2     3    1
     6     2    10    1
     7     2     4    1
     8     4     5    1
     9     4     6    1
    10     4     7    1
    11     6    27    1
    12     6    28    1
    13     6    29    1
    14     7     8    1
    15     8     9    1
    16     8    30    1
    17     8    31    1
    18     9    10    1
    19     9    32    1
    20     9    33    1
    21    10    11   am
    22    11    12    2
    23    11    13    1
    24    13    14    1
    25    13    34    1
    26    13    35    1
    27    14    15    1
    28    14    36    1
    29    14    37    1
    30    15    16    1
    31    16    22   ar
    32    16    17   ar
    33    17    18   ar
    34    17    38    1
    35    18    19   ar
    36    18    39    1
    37    19    20    1
    38    19    21   ar
    39    21    22   ar
    40    21    40    1
    41    22    23    1
@<TRIPOS>SUBSTRUCTURE
     1 ZINC000345028113        1 TEMP              0 ****  ****    0 ROOT


##########                                Name:    ZINC000004040798
##########                DOCK_Rotatable_Bonds:                   3
##########                         Heavy_Atoms:                  22
##########                    Molecular_Weight:             361.151
##########                DOCK_Rotatable_Bonds:                   3
##########                       Formal_Charge:           0.0200003
##########                     HBond_Acceptors:                   6
##########                        HBond_Donors:                   1
##########                         Heavy_Atoms:                  22
##########                          Grid_Score:          -23.641695
##########                     Grid_vdw_energy:          -23.085825
##########                      Grid_es_energy:           -0.555871
##########           Internal_energy_repulsive:            2.139566

@<TRIPOS>MOLECULE
ZINC000004040798
 31 33 1 0 0
SMALL
USER_CHARGES


@<TRIPOS>ATOM
      1 O1         -3.0380    1.1232   47.0794 O.2     1  ZINC000004040798   -0.4800
      2 C2         -1.9094    1.4959   46.8192 C.2     1  ZINC000004040798    0.6100
      3 N3         -1.2195    2.2313   47.7134 N.am    1  ZINC000004040798   -0.6600
      4 C4         -1.8030    2.5710   48.9381 C.ar    1  ZINC000004040798    0.2300
      5 C5         -2.8446    3.4881   48.9822 C.ar    1  ZINC000004040798   -0.1300
      6 C6         -3.4188    3.8217   50.1936 C.ar    1  ZINC000004040798   -0.0100
      7 C7         -2.9577    3.2435   51.3617 C.ar    1  ZINC000004040798   -0.0600
      8 N8         -3.5757    3.6035   52.6577 N.pl3   1  ZINC000004040798    0.0300
      9 O9         -4.4893    4.4083   52.6941 O.2     1  ZINC000004040798   -0.1500
     10 O10        -3.1708    3.0950   53.6877 O.2     1  ZINC000004040798   -0.1500
     11 C11        -1.9209    2.3291   51.3222 C.ar    1  ZINC000004040798    0.0000
     12 C12        -1.3454    1.9870   50.1136 C.ar    1  ZINC000004040798   -0.1400
     13 Br13        0.0723    0.7368   50.0601 Br      1  ZINC000004040798    0.0000
     14 C14        -1.2963    1.1390   45.5324 C.2     1  ZINC000004040798   -0.0500
     15 C15        -1.9317    0.5051   44.5129 C.2     1  ZINC000004040798   -0.0800
     16 C16        -0.9417    0.3601   43.4463 C.ar    1  ZINC000004040798   -0.1500
     17 C17        -0.9657   -0.1941   42.1645 C.ar    1  ZINC000004040798   -0.0500
     18 C18         0.1631   -0.1690   41.3946 C.ar    1  ZINC000004040798   -0.1400
     19 C19         1.3316    0.4029   41.8781 C.ar    1  ZINC000004040798   -0.0700
     20 C20         1.3760    0.9552   43.1402 C.ar    1  ZINC000004040798   -0.1100
     21 C21         0.2404    0.9418   43.9416 C.ar    1  ZINC000004040798    0.0800
     22 O22        -0.0186    1.3969   45.1829 O.3     1  ZINC000004040798   -0.1900
     23 H23        -0.3182    2.5250   47.5075 H       1  ZINC000004040798    0.4300
     24 H24        -3.2052    3.9407   48.0702 H       1  ZINC000004040798    0.1800
     25 H25        -4.2287    4.5353   50.2282 H       1  ZINC000004040798    0.1700
     26 H26        -1.5630    1.8793   52.2366 H       1  ZINC000004040798    0.1700
     27 H27        -2.9598    0.1744   44.4941 H       1  ZINC000004040798    0.1800
     28 H28        -1.8722   -0.6409   41.7837 H       1  ZINC000004040798    0.1400
     29 H29         0.1458   -0.5973   40.4033 H       1  ZINC000004040798    0.1400
     30 H30         2.2162    0.4149   41.2587 H       1  ZINC000004040798    0.1400
     31 H31         2.2909    1.3976   43.5056 H       1  ZINC000004040798    0.1400
@<TRIPOS>BOND
     1     1     2    2
     2     2     3   am
     3     2    14    1
     4     3     4    1
     5     3    23    1
     6     4    12   ar
     7     4     5   ar
     8     5     6   ar
     9     5    24    1
    10     6     7   ar
    11     6    25    1
    12     7     8    1
    13     7    11   ar
    14     8     9    2
    15     8    10    2
    16    11    12   ar
    17    11    26    1
    18    12    13    1
    19    14    22    1
    20    14    15    2
    21    15    16    1
    22    15    27    1
    23    16    21   ar
    24    16    17   ar
    25    17    18   ar
    26    17    28    1
    27    18    19   ar
    28    18    29    1
    29    19    20   ar
    30    19    30    1
    31    20    21   ar
    32    20    31    1
    33    21    22    1
@<TRIPOS>SUBSTRUCTURE
     1 ZINC000004040798        1 TEMP              0 ****  ****    0 ROOT


##########                                Name:    ZINC000550782577
##########                DOCK_Rotatable_Bonds:                   5
##########                         Heavy_Atoms:                  25
##########                    Molecular_Weight:              338.45
##########                DOCK_Rotatable_Bonds:                   5
##########                       Formal_Charge:         -0.00999954
##########                     HBond_Acceptors:                   4
##########                        HBond_Donors:                   0
##########                         Heavy_Atoms:                  25
##########                          Grid_Score:          -23.499968
##########                     Grid_vdw_energy:          -23.547380
##########                      Grid_es_energy:            0.047413
##########           Internal_energy_repulsive:          120.181847

@<TRIPOS>MOLECULE
ZINC000550782577
 51 53 1 0 0
SMALL
USER_CHARGES


@<TRIPOS>ATOM
      1 C1         -0.5325   -0.1291   46.5724 C.3     1  ZINC000550782577    0.0700
      2 N2         -0.8141    1.3062   46.6564 N.am    1  ZINC000550782577   -0.5900
      3 C3         -0.4044    2.1320   45.6733 C.2     1  ZINC000550782577    0.5800
      4 O4         -0.6379    3.3227   45.7430 O.2     1  ZINC000550782577   -0.5400
      5 C5          0.3295    1.5891   44.5092 C.ar    1  ZINC000550782577    0.0300
      6 C6          1.7214    1.6629   44.4757 C.ar    1  ZINC000550782577   -0.0600
      7 C7          2.3969    1.1517   43.3817 C.ar    1  ZINC000550782577   -0.1200
      8 C8          1.6549    0.5807   42.3518 C.ar    1  ZINC000550782577    0.1100
      9 O9          2.2771    0.0670   41.2605 O.3     1  ZINC000550782577   -0.3000
     10 C10         3.6397    0.4442   41.0530 C.3     1  ZINC000550782577    0.1000
     11 C11         4.5214   -0.2297   42.1062 C.3     1  ZINC000550782577   -0.2000
     12 C12         4.0843    0.0023   39.6572 C.3     1  ZINC000550782577   -0.1400
     13 C13         3.7722    1.9637   41.1732 C.3     1  ZINC000550782577   -0.2000
     14 C14         0.2664    0.5422   42.4543 C.ar    1  ZINC000550782577   -0.0100
     15 N15        -0.3440    1.0316   43.5093 N.ar    1  ZINC000550782577   -0.4100
     16 C16        -1.5409    1.8438   47.8093 C.3     1  ZINC000550782577    0.1400
     17 H17        -1.6957    2.9148   47.6785 H       1  ZINC000550782577    0.1100
     18 C18        -2.8958    1.1384   47.9400 C.3     1  ZINC000550782577   -0.1300
     19 C19        -3.7238    1.8761   48.9903 C.3     1  ZINC000550782577   -0.0800
     20 C20        -2.9326    2.0528   50.2598 C.ar    1  ZINC000550782577   -0.0800
     21 C21        -3.6323    2.3510   51.4216 C.ar    1  ZINC000550782577   -0.1200
     22 C22        -2.9647    2.5304   52.6156 C.ar    1  ZINC000550782577   -0.1200
     23 C23        -1.5880    2.4134   52.6565 C.ar    1  ZINC000550782577   -0.1200
     24 C24        -0.8912    2.1148   51.5037 C.ar    1  ZINC000550782577   -0.1200
     25 C25        -1.5616    1.9303   50.3017 C.ar    1  ZINC000550782577   -0.0700
     26 C26        -0.7400    1.5920   49.0852 C.3     1  ZINC000550782577   -0.0900
     27 H27         0.4750   -0.3238   46.9400 H       1  ZINC000550782577    0.0600
     28 H28        -1.2531   -0.6768   47.1797 H       1  ZINC000550782577    0.0600
     29 H29        -0.6100   -0.4544   45.5350 H       1  ZINC000550782577    0.1100
     30 H30         2.2652    2.1134   45.2928 H       1  ZINC000550782577    0.1600
     31 H31         3.4747    1.1950   43.3279 H       1  ZINC000550782577    0.1500
     32 H32         4.7637   -1.2421   41.7834 H       1  ZINC000550782577    0.0700
     33 H33         5.4411    0.3422   42.2299 H       1  ZINC000550782577    0.0800
     34 H34         3.9876   -0.2690   43.0558 H       1  ZINC000550782577    0.0800
     35 H35         3.4561    0.4824   38.9069 H       1  ZINC000550782577    0.0700
     36 H36         5.1237    0.2901   39.4991 H       1  ZINC000550782577    0.0800
     37 H37         3.9899   -1.0802   39.5715 H       1  ZINC000550782577    0.0700
     38 H38         3.4599    2.2779   42.1691 H       1  ZINC000550782577    0.0800
     39 H39         4.8108    2.2518   41.0104 H       1  ZINC000550782577    0.0800
     40 H40         3.1405    2.4438   40.4260 H       1  ZINC000550782577    0.0700
     41 H41        -0.3151    0.1005   41.6586 H       1  ZINC000550782577    0.1900
     42 H42        -3.4149    1.1600   46.9818 H       1  ZINC000550782577    0.0700
     43 H43        -2.7432    0.1053   48.2521 H       1  ZINC000550782577    0.0700
     44 H44        -4.0057    2.8552   48.6030 H       1  ZINC000550782577    0.0800
     45 H45        -4.6252    1.3021   49.2054 H       1  ZINC000550782577    0.0800
     46 H46        -4.7079    2.4435   51.3902 H       1  ZINC000550782577    0.1200
     47 H47        -3.5157    2.7618   53.5152 H       1  ZINC000550782577    0.1200
     48 H48        -1.0595    2.5555   53.5877 H       1  ZINC000550782577    0.1200
     49 H49         0.1845    2.0239   51.5365 H       1  ZINC000550782577    0.1200
     50 H50        -0.4520    0.5415   49.1268 H       1  ZINC000550782577    0.0800
     51 H51         0.1577    2.2100   49.0745 H       1  ZINC000550782577    0.0800
@<TRIPOS>BOND
     1     1     2    1
     2     1    27    1
     3     1    28    1
     4     1    29    1
     5     2     3   am
     6     2    16    1
     7     3     4    2
     8     3     5    1
     9     5    15   ar
    10     5     6   ar
    11     6     7   ar
    12     6    30    1
    13     7     8   ar
    14     7    31    1
    15     8     9    1
    16     8    14   ar
    17     9    10    1
    18    10    11    1
    19    10    12    1
    20    10    13    1
    21    11    32    1
    22    11    33    1
    23    11    34    1
    24    12    35    1
    25    12    36    1
    26    12    37    1
    27    13    38    1
    28    13    39    1
    29    13    40    1
    30    14    15   ar
    31    14    41    1
    32    16    17    1
    33    16    26    1
    34    16    18    1
    35    18    19    1
    36    18    42    1
    37    18    43    1
    38    19    20    1
    39    19    44    1
    40    19    45    1
    41    20    25   ar
    42    20    21   ar
    43    21    22   ar
    44    21    46    1
    45    22    23   ar
    46    22    47    1
    47    23    24   ar
    48    23    48    1
    49    24    25   ar
    50    24    49    1
    51    25    26    1
    52    26    50    1
    53    26    51    1
@<TRIPOS>SUBSTRUCTURE
     1 ZINC000550782577        1 TEMP              0 ****  ****    0 ROOT


##########                                Name:    ZINC000431691749
##########                DOCK_Rotatable_Bonds:                   4
##########                         Heavy_Atoms:                  24
##########                    Molecular_Weight:             328.454
##########                DOCK_Rotatable_Bonds:                   4
##########                       Formal_Charge:         -0.00999957
##########                     HBond_Acceptors:                   4
##########                        HBond_Donors:                   0
##########                         Heavy_Atoms:                  24
##########                          Grid_Score:          -23.318783
##########                     Grid_vdw_energy:          -22.891430
##########                      Grid_es_energy:           -0.427353
##########           Internal_energy_repulsive:          112.236443

@<TRIPOS>MOLECULE
ZINC000431691749
 52 54 1 0 0
SMALL
USER_CHARGES


@<TRIPOS>ATOM
      1 C1          2.9489    3.2912   43.5179 C.3     1  ZINC000431691749   -0.1200
      2 C2          1.6742    3.1889   44.3151 C.ar    1  ZINC000431691749   -0.0800
      3 C3          0.7232    4.1881   44.2292 C.ar    1  ZINC000431691749   -0.1200
      4 C4         -0.4463    4.0942   44.9606 C.ar    1  ZINC000431691749   -0.1100
      5 C5         -0.6648    3.0008   45.7773 C.ar    1  ZINC000431691749   -0.1100
      6 C6          0.2861    2.0008   45.8626 C.ar    1  ZINC000431691749   -0.0800
      7 C7          0.0482    0.8087   46.7535 C.3     1  ZINC000431691749    0.2000
      8 H8          0.6962   -0.0112   46.4440 H       1  ZINC000431691749    0.1100
      9 N9          0.3463    1.1694   48.1417 N.am    1  ZINC000431691749   -0.5700
     10 C10         0.8028    0.3031   49.0677 C.2     1  ZINC000431691749    0.5200
     11 O11         1.0355   -0.8768   48.9148 O.2     1  ZINC000431691749   -0.4400
     12 C12         0.9659    1.1112   50.3397 C.3     1  ZINC000431691749    0.0900
     13 H13         0.3206    0.7214   51.1270 H       1  ZINC000431691749    0.1300
     14 C14         2.4269    1.1109   50.7941 C.3     1  ZINC000431691749   -0.1500
     15 N15         0.5425    2.4661   49.9459 N.am    1  ZINC000431691749   -0.6000
     16 C16         0.5032    3.6544   50.8019 C.3     1  ZINC000431691749    0.1500
     17 C17        -0.8803    4.3228   50.8648 C.3     1  ZINC000431691749   -0.1600
     18 C18        -1.1885    3.3931   52.0503 C.3     1  ZINC000431691749   -0.1400
     19 C19         0.3283    3.3322   52.2953 C.3     1  ZINC000431691749   -0.1500
     20 C20         0.2044    2.4007   48.6455 C.2     1  ZINC000431691749    0.7000
     21 O21        -0.1927    3.3523   48.0020 O.2     1  ZINC000431691749   -0.5300
     22 C22        -1.4142    0.3728   46.6424 C.3     1  ZINC000431691749   -0.0700
     23 C23        -1.5027   -1.1502   46.7586 C.3     1  ZINC000431691749   -0.1400
     24 C24        -2.2255    1.0182   47.7677 C.3     1  ZINC000431691749   -0.1400
     25 C25        -1.9768    0.8147   45.2900 C.3     1  ZINC000431691749   -0.1600
     26 C26         1.4533    2.0926   45.1282 C.ar    1  ZINC000431691749   -0.1100
     27 H27         2.8059    2.8259   42.5427 H       1  ZINC000431691749    0.0700
     28 H28         3.2109    4.3409   43.3849 H       1  ZINC000431691749    0.0700
     29 H29         3.7520    2.7809   44.0497 H       1  ZINC000431691749    0.0700
     30 H30         0.8938    5.0426   43.5910 H       1  ZINC000431691749    0.1200
     31 H31        -1.1891    4.8754   44.8940 H       1  ZINC000431691749    0.1200
     32 H32        -1.5780    2.9277   46.3492 H       1  ZINC000431691749    0.1100
     33 H33         3.0530    1.5261   50.0043 H       1  ZINC000431691749    0.0700
     34 H34         2.5276    1.7175   51.6942 H       1  ZINC000431691749    0.0800
     35 H35         2.7408    0.0892   51.0075 H       1  ZINC000431691749    0.0800
     36 H36         1.3170    4.3503   50.5977 H       1  ZINC000431691749    0.1000
     37 H37        -0.8435    5.3780   51.1355 H       1  ZINC000431691749    0.0900
     38 H38        -1.4981    4.1311   49.9874 H       1  ZINC000431691749    0.0700
     39 H39        -1.7415    3.8791   52.8540 H       1  ZINC000431691749    0.0700
     40 H40        -1.6219    2.4376   51.7547 H       1  ZINC000431691749    0.0800
     41 H41         0.6864    2.3408   52.5730 H       1  ZINC000431691749    0.1000
     42 H42         0.6956    4.1166   52.9572 H       1  ZINC000431691749    0.0900
     43 H43        -1.1018   -1.4649   47.7221 H       1  ZINC000431691749    0.0600
     44 H44        -2.5445   -1.4606   46.6796 H       1  ZINC000431691749    0.0600
     45 H45        -0.9246   -1.6099   45.9570 H       1  ZINC000431691749    0.0600
     46 H46        -2.1624    2.1032   47.6850 H       1  ZINC000431691749    0.0500
     47 H47        -3.2673    0.7077   47.6887 H       1  ZINC000431691749    0.0600
     48 H48        -1.8247    0.7034   48.7312 H       1  ZINC000431691749    0.0500
     49 H49        -1.1612    0.9226   44.5749 H       1  ZINC000431691749    0.0700
     50 H50        -2.6812    0.0661   44.9274 H       1  ZINC000431691749    0.0400
     51 H51        -2.4887    1.7703   45.4041 H       1  ZINC000431691749    0.1000
     52 H52         2.1961    1.3113   45.1947 H       1  ZINC000431691749    0.1300
@<TRIPOS>BOND
     1     1     2    1
     2     1    27    1
     3     1    28    1
     4     1    29    1
     5     2    26   ar
     6     2     3   ar
     7     3     4   ar
     8     3    30    1
     9     4     5   ar
    10     4    31    1
    11     5     6   ar
    12     5    32    1
    13     6     7    1
    14     6    26   ar
    15     7     8    1
    16     7     9    1
    17     7    22    1
    18     9    20   am
    19     9    10   am
    20    10    11    2
    21    10    12    1
    22    12    13    1
    23    12    14    1
    24    12    15    1
    25    14    33    1
    26    14    34    1
    27    14    35    1
    28    15    16    1
    29    15    20   am
    30    16    19    1
    31    16    17    1
    32    16    36    1
    33    17    18    1
    34    17    37    1
    35    17    38    1
    36    18    19    1
    37    18    39    1
    38    18    40    1
    39    19    41    1
    40    19    42    1
    41    20    21    2
    42    22    23    1
    43    22    24    1
    44    22    25    1
    45    23    43    1
    46    23    44    1
    47    23    45    1
    48    24    46    1
    49    24    47    1
    50    24    48    1
    51    25    49    1
    52    25    50    1
    53    25    51    1
    54    26    52    1
@<TRIPOS>SUBSTRUCTURE
     1 ZINC000431691749        1 TEMP              0 ****  ****    0 ROOT


##########                                Name:    ZINC000656860804
##########                DOCK_Rotatable_Bonds:                   2
##########                         Heavy_Atoms:                  19
##########                    Molecular_Weight:             388.068
##########                DOCK_Rotatable_Bonds:                   2
##########                       Formal_Charge:          8.9407e-08
##########                     HBond_Acceptors:                   8
##########                        HBond_Donors:                   1
##########                         Heavy_Atoms:                  19
##########                          Grid_Score:          -23.283443
##########                     Grid_vdw_energy:          -22.977890
##########                      Grid_es_energy:           -0.305554
##########           Internal_energy_repulsive:           12.854117

@<TRIPOS>MOLECULE
ZINC000656860804
 28 29 1 0 0
SMALL
USER_CHARGES


@<TRIPOS>ATOM
      1 O1        -10.8849    2.4139   53.2509 O.2     1  ZINC000656860804   -0.5400
      2 C2        -10.3786    1.3119   53.2453 C.2     1  ZINC000656860804    0.5100
      3 C3        -10.2414    0.5785   54.5517 C.3     1  ZINC000656860804    0.1100
      4 N4         -9.8965   -0.8242   54.2763 N.am    1  ZINC000656860804   -1.0000
      5 S5        -10.6109   -2.0661   55.1068 S.o2    1  ZINC000656860804    2.6900
      6 O6        -12.0137   -1.8796   54.9791 O.2     1  ZINC000656860804   -0.9200
      7 O7         -9.9448   -3.2545   54.7028 O.2     1  ZINC000656860804   -0.9300
      8 C8        -10.2320   -1.8389   56.8125 C.ar    1  ZINC000656860804   -0.6500
      9 C9         -9.2665   -0.9250   57.1898 C.ar    1  ZINC000656860804    0.0100
     10 C10        -8.9686   -0.7462   58.5290 C.ar    1  ZINC000656860804   -0.0400
     11 Cl11       -7.7560    0.4021   59.0029 Cl      1  ZINC000656860804   -0.0200
     12 C12        -9.6382   -1.4830   59.4910 C.ar    1  ZINC000656860804    0.0200
     13 Cl13       -9.2655   -1.2588   61.1717 Cl      1  ZINC000656860804   -0.0100
     14 C14       -10.6046   -2.3975   59.1126 C.ar    1  ZINC000656860804   -0.0900
     15 C15       -10.9054   -2.5712   57.7740 C.ar    1  ZINC000656860804    0.0100
     16 Br16      -12.2265   -3.8213   57.2565 Br      1  ZINC000656860804    0.0100
     17 C17        -8.8904   -1.0797   53.2317 C.3     1  ZINC000656860804    0.0900
     18 C18        -9.4286   -0.5355   51.9070 C.3     1  ZINC000656860804    0.0800
     19 N19        -9.9739    0.8035   52.0804 N.am    1  ZINC000656860804   -0.7100
     20 H20        -9.4527    1.0383   55.1473 H       1  ZINC000656860804    0.1200
     21 H21       -11.1848    0.6224   55.0958 H       1  ZINC000656860804    0.1200
     22 H22        -8.7440   -0.3507   56.4391 H       1  ZINC000656860804    0.1700
     23 H23       -11.1270   -2.9728   59.8626 H       1  ZINC000656860804    0.1700
     24 H24        -7.9592   -0.5734   53.4861 H       1  ZINC000656860804    0.1000
     25 H25        -8.7147   -2.1519   53.1446 H       1  ZINC000656860804    0.1200
     26 H26        -8.6198   -0.5042   51.1769 H       1  ZINC000656860804    0.1000
     27 H27       -10.2156   -1.1951   51.5415 H       1  ZINC000656860804    0.0800
     28 H28       -10.0420    1.3680   51.2945 H       1  ZINC000656860804    0.4000
@<TRIPOS>BOND
     1     1     2    2
     2     2    19   am
     3     2     3    1
     4     3     4    1
     5     3    20    1
     6     3    21    1
     7     4     5   am
     8     4    17    1
     9     5     6    2
    10     5     7    2
    11     5     8    1
    12     8    15   ar
    13     8     9   ar
    14     9    10   ar
    15     9    22    1
    16    10    11    1
    17    10    12   ar
    18    12    13    1
    19    12    14   ar
    20    14    15   ar
    21    14    23    1
    22    15    16    1
    23    17    18    1
    24    17    24    1
    25    17    25    1
    26    18    19    1
    27    18    26    1
    28    18    27    1
    29    19    28    1
@<TRIPOS>SUBSTRUCTURE
     1 ZINC000656860804        1 TEMP              0 ****  ****    0 ROOT


##########                                Name:    ZINC000341804698
##########                DOCK_Rotatable_Bonds:                   7
##########                         Heavy_Atoms:                  24
##########                    Molecular_Weight:             342.318
##########                DOCK_Rotatable_Bonds:                   7
##########                       Formal_Charge:                0.02
##########                     HBond_Acceptors:                   8
##########                        HBond_Donors:                   0
##########                         Heavy_Atoms:                  24
##########                          Grid_Score:          -23.247875
##########                     Grid_vdw_energy:          -24.105268
##########                      Grid_es_energy:            0.857393
##########           Internal_energy_repulsive:           27.487823

@<TRIPOS>MOLECULE
ZINC000341804698
 41 42 1 0 0
SMALL
USER_CHARGES


@<TRIPOS>ATOM
      1 C1         -8.0264   -0.5309   63.5984 C.3     1  ZINC000341804698    0.0300
      2 O2         -7.9655   -0.6942   62.1800 O.3     1  ZINC000341804698   -0.3900
      3 C3         -9.2362   -0.9169   61.5654 C.3     1  ZINC000341804698    0.0700
      4 C4         -9.3585   -0.0427   60.3158 C.3     1  ZINC000341804698    0.0400
      5 C5         -8.6709    1.2387   60.5444 C.1     1  ZINC000341804698    0.2200
      6 N6         -8.1404    2.2275   60.7208 N.1     1  ZINC000341804698   -0.4200
      7 C7         -8.7163   -0.7606   59.1266 C.3     1  ZINC000341804698   -0.1200
      8 C8         -8.8099    0.1322   57.8851 C.3     1  ZINC000341804698    0.1100
      9 N9        -10.2153    0.5066   57.6767 N.am    1  ZINC000341804698   -0.6000
     10 C10       -10.8150    0.2893   56.4895 C.2     1  ZINC000341804698    0.5700
     11 O11       -11.9783    0.6035   56.3297 O.2     1  ZINC000341804698   -0.5200
     12 C12       -10.0580   -0.3313   55.3814 C.ar    1  ZINC000341804698   -0.0900
     13 C13       -10.2295   -1.6849   55.0879 C.ar    1  ZINC000341804698   -0.1100
     14 C14        -9.5213   -2.2610   54.0531 C.ar    1  ZINC000341804698   -0.0800
     15 C15        -8.6413   -1.5014   53.3049 C.ar    1  ZINC000341804698   -0.1700
     16 C16        -8.4636   -0.1541   53.5898 C.ar    1  ZINC000341804698    0.1100
     17 O17        -7.5968    0.5878   52.8513 O.3     1  ZINC000341804698   -0.3100
     18 C18        -6.9360   -0.0724   51.7697 C.3     1  ZINC000341804698    0.6000
     19 F19        -6.1870   -1.1448   52.2657 F       1  ZINC000341804698   -0.1600
     20 F20        -7.8884   -0.5487   50.8625 F       1  ZINC000341804698   -0.1300
     21 F21        -6.0857    0.8303   51.1222 F       1  ZINC000341804698   -0.1600
     22 C22        -9.1738    0.4355   54.6218 C.ar    1  ZINC000341804698   -0.0700
     23 C23       -10.9546    1.1218   58.7874 C.3     1  ZINC000341804698    0.0900
     24 C24       -10.8370    0.2180   60.0186 C.3     1  ZINC000341804698   -0.1200
     25 H25        -8.6547    0.3268   63.8387 H       1  ZINC000341804698    0.0400
     26 H26        -8.4491   -1.4286   64.0496 H       1  ZINC000341804698    0.0500
     27 H27        -7.0221   -0.3664   63.9886 H       1  ZINC000341804698    0.0900
     28 H28        -9.3251   -1.9664   61.2849 H       1  ZINC000341804698    0.0700
     29 H29       -10.0294   -0.6601   62.2676 H       1  ZINC000341804698    0.0600
     30 H30        -7.6692   -0.9667   59.3483 H       1  ZINC000341804698    0.1000
     31 H31        -9.2408   -1.6979   58.9409 H       1  ZINC000341804698    0.0900
     32 H32        -8.2109    1.0305   58.0350 H       1  ZINC000341804698    0.0700
     33 H33        -8.4440   -0.4126   57.0149 H       1  ZINC000341804698    0.1100
     34 H34       -10.9160   -2.2813   55.6706 H       1  ZINC000341804698    0.1400
     35 H35        -9.6547   -3.3087   53.8271 H       1  ZINC000341804698    0.1400
     36 H36        -8.0897   -1.9576   52.4962 H       1  ZINC000341804698    0.1400
     37 H37        -9.0368    1.4834   54.8442 H       1  ZINC000341804698    0.1500
     38 H38       -10.5305    2.1008   59.0108 H       1  ZINC000341804698    0.0800
     39 H39       -12.0038    1.2300   58.5125 H       1  ZINC000341804698    0.1100
     40 H40       -11.3414   -0.7286   59.8247 H       1  ZINC000341804698    0.1000
     41 H41       -11.2993    0.7083   60.8754 H       1  ZINC000341804698    0.0900
@<TRIPOS>BOND
     1     1     2    1
     2     1    25    1
     3     1    26    1
     4     1    27    1
     5     2     3    1
     6     3     4    1
     7     3    28    1
     8     3    29    1
     9     4    24    1
    10     4     5    1
    11     4     7    1
    12     5     6    3
    13     7     8    1
    14     7    30    1
    15     7    31    1
    16     8     9    1
    17     8    32    1
    18     8    33    1
    19     9    10   am
    20     9    23    1
    21    10    11    2
    22    10    12    1
    23    12    22   ar
    24    12    13   ar
    25    13    14   ar
    26    13    34    1
    27    14    15   ar
    28    14    35    1
    29    15    16   ar
    30    15    36    1
    31    16    17    1
    32    16    22   ar
    33    17    18    1
    34    18    19    1
    35    18    20    1
    36    18    21    1
    37    22    37    1
    38    23    24    1
    39    23    38    1
    40    23    39    1
    41    24    40    1
    42    24    41    1
@<TRIPOS>SUBSTRUCTURE
     1 ZINC000341804698        1 TEMP              0 ****  ****    0 ROOT


##########                                Name:    ZINC000648570180
##########                DOCK_Rotatable_Bonds:                   4
##########                         Heavy_Atoms:                  25
##########                    Molecular_Weight:             342.484
##########                DOCK_Rotatable_Bonds:                   4
##########                       Formal_Charge:          0.00999971
##########                     HBond_Acceptors:                   5
##########                        HBond_Donors:                   0
##########                         Heavy_Atoms:                  25
##########                          Grid_Score:          -23.139269
##########                     Grid_vdw_energy:          -22.914520
##########                      Grid_es_energy:           -0.224749
##########           Internal_energy_repulsive:           80.603172

@<TRIPOS>MOLECULE
ZINC000648570180
 55 58 1 0 0
SMALL
USER_CHARGES


@<TRIPOS>ATOM
      1 C1        -14.7565    1.1006   56.0847 C.3     1  ZINC000648570180   -0.1500
      2 C2        -13.7230    0.4895   55.1364 C.3     1  ZINC000648570180   -0.0600
      3 C3        -14.4292   -0.2276   53.9840 C.3     1  ZINC000648570180   -0.1400
      4 C4        -12.7949    1.5915   54.5849 C.3     1  ZINC000648570180   -0.1200
      5 C5        -11.4035    0.9149   54.5121 C.3     1  ZINC000648570180   -0.1300
      6 C6        -11.3832    0.0367   55.7879 C.3     1  ZINC000648570180   -0.1200
      7 C7        -12.8254   -0.4990   55.9012 C.3     1  ZINC000648570180   -0.0700
      8 H8        -12.8924   -1.4894   55.4508 H       1  ZINC000648570180    0.0800
      9 C9        -13.2471   -0.5625   57.3705 C.3     1  ZINC000648570180   -0.1000
     10 H10       -13.4828    0.4317   57.7505 H       1  ZINC000648570180    0.1000
     11 C11       -14.4443   -1.5301   57.5645 C.3     1  ZINC000648570180   -0.1400
     12 C12       -14.2838   -1.9895   59.0289 C.3     1  ZINC000648570180    0.1200
     13 N13       -12.8763   -1.7820   59.3998 N.am    1  ZINC000648570180   -0.6000
     14 C14       -12.3352   -2.0427   60.6062 C.2     1  ZINC000648570180    0.5800
     15 O15       -13.0275   -2.4900   61.4986 O.2     1  ZINC000648570180   -0.5200
     16 C16       -10.8929   -1.7833   60.8447 C.ar    1  ZINC000648570180    0.1600
     17 C17        -9.9201   -2.5036   60.1520 C.ar    1  ZINC000648570180   -0.2000
     18 C18        -8.5844   -2.2256   60.4083 C.ar    1  ZINC000648570180    0.1800
     19 N19        -8.2774   -1.2943   61.2935 N.ar    1  ZINC000648570180   -0.5400
     20 C20        -9.2247   -0.6258   61.9367 C.ar    1  ZINC000648570180    0.4800
     21 N21        -8.8605    0.3422   62.8567 N.3     1  ZINC000648570180   -0.4400
     22 C22       -10.0506    0.8758   63.5676 C.3     1  ZINC000648570180    0.0500
     23 C23        -9.4469    1.4992   64.8512 C.3     1  ZINC000648570180   -0.1200
     24 C24        -8.3164    0.5101   65.2170 C.3     1  ZINC000648570180   -0.1300
     25 C25        -7.9855   -0.2256   63.9053 C.3     1  ZINC000648570180    0.0400
     26 N26       -10.5088   -0.8561   61.7185 N.ar    1  ZINC000648570180   -0.5000
     27 C27       -12.1541   -1.2416   58.2330 C.3     1  ZINC000648570180    0.1100
     28 H28       -14.2499    1.5128   56.9574 H       1  ZINC000648570180    0.0600
     29 H29       -15.2972    1.8948   55.5698 H       1  ZINC000648570180    0.0500
     30 H30       -15.4586    0.3299   56.4025 H       1  ZINC000648570180    0.0700
     31 H31       -15.0526    0.4832   53.4413 H       1  ZINC000648570180    0.0500
     32 H32       -13.6852   -0.6486   53.3077 H       1  ZINC000648570180    0.0500
     33 H33       -15.0529   -1.0280   54.3818 H       1  ZINC000648570180    0.0500
     34 H34       -13.1203    1.9027   53.5923 H       1  ZINC000648570180    0.0600
     35 H35       -12.7697    2.4439   55.2638 H       1  ZINC000648570180    0.0700
     36 H36       -11.3202    0.2983   53.6172 H       1  ZINC000648570180    0.0700
     37 H37       -10.6092    1.6608   54.5440 H       1  ZINC000648570180    0.0700
     38 H38       -10.6784   -0.7867   55.6730 H       1  ZINC000648570180    0.0700
     39 H39       -11.1300    0.6380   56.6609 H       1  ZINC000648570180    0.0700
     40 H40       -15.3900   -1.0062   57.4260 H       1  ZINC000648570180    0.0900
     41 H41       -14.3687   -2.3781   56.8838 H       1  ZINC000648570180    0.0800
     42 H42       -14.9291   -1.3959   59.6765 H       1  ZINC000648570180    0.0800
     43 H43       -14.5382   -3.0458   59.1161 H       1  ZINC000648570180    0.0700
     44 H44       -10.1993   -3.2602   59.4335 H       1  ZINC000648570180    0.1600
     45 H45        -7.8051   -2.7646   59.8901 H       1  ZINC000648570180    0.1800
     46 H46       -10.5479    1.6375   62.9671 H       1  ZINC000648570180    0.1000
     47 H47       -10.7414    0.0710   63.8188 H       1  ZINC000648570180    0.0500
     48 H48        -9.0413    2.4895   64.6450 H       1  ZINC000648570180    0.0800
     49 H49       -10.1921    1.5440   65.6453 H       1  ZINC000648570180    0.0800
     50 H50        -7.4420    1.0518   65.5778 H       1  ZINC000648570180    0.0800
     51 H51        -8.6618   -0.1973   65.9708 H       1  ZINC000648570180    0.0700
     52 H52        -8.1838   -1.2915   64.0172 H       1  ZINC000648570180    0.0900
     53 H53        -6.9397   -0.0652   63.6431 H       1  ZINC000648570180    0.0900
     54 H54       -11.6780   -2.0477   57.6749 H       1  ZINC000648570180    0.0700
     55 H55       -11.4118   -0.5099   58.5518 H       1  ZINC000648570180    0.0800
@<TRIPOS>BOND
     1     1     2    1
     2     1    28    1
     3     1    29    1
     4     1    30    1
     5     2     7    1
     6     2     3    1
     7     2     4    1
     8     3    31    1
     9     3    32    1
    10     3    33    1
    11     4     5    1
    12     4    34    1
    13     4    35    1
    14     5     6    1
    15     5    36    1
    16     5    37    1
    17     6     7    1
    18     6    38    1
    19     6    39    1
    20     7     8    1
    21     7     9    1
    22     9    10    1
    23     9    27    1
    24     9    11    1
    25    11    12    1
    26    11    40    1
    27    11    41    1
    28    12    13    1
    29    12    42    1
    30    12    43    1
    31    13    14   am
    32    13    27    1
    33    14    15    2
    34    14    16    1
    35    16    26   ar
    36    16    17   ar
    37    17    18   ar
    38    17    44    1
    39    18    19   ar
    40    18    45    1
    41    19    20   ar
    42    20    21    1
    43    20    26   ar
    44    21    25    1
    45    21    22    1
    46    22    23    1
    47    22    46    1
    48    22    47    1
    49    23    24    1
    50    23    48    1
    51    23    49    1
    52    24    25    1
    53    24    50    1
    54    24    51    1
    55    25    52    1
    56    25    53    1
    57    27    54    1
    58    27    55    1
@<TRIPOS>SUBSTRUCTURE
     1 ZINC000648570180        1 TEMP              0 ****  ****    0 ROOT


##########                                Name:    ZINC000965273005
##########                DOCK_Rotatable_Bonds:                   7
##########                         Heavy_Atoms:                  27
##########                    Molecular_Weight:             368.436
##########                DOCK_Rotatable_Bonds:                   7
##########                       Formal_Charge:           0.0100003
##########                     HBond_Acceptors:                   7
##########                        HBond_Donors:                   2
##########                         Heavy_Atoms:                  27
##########                          Grid_Score:          -23.049068
##########                     Grid_vdw_energy:          -23.239876
##########                      Grid_es_energy:            0.190807
##########           Internal_energy_repulsive:            8.717731

@<TRIPOS>MOLECULE
ZINC000965273005
 51 54 1 0 0
SMALL
USER_CHARGES


@<TRIPOS>ATOM
      1 C1         -9.9923   -3.0362   58.5158 C.3     1  ZINC000965273005   -0.1200
      2 C2        -10.5129   -2.2261   59.6749 C.ar    1  ZINC000965273005   -0.0300
      3 C3         -9.6930   -1.9509   60.7495 C.ar    1  ZINC000965273005   -0.1200
      4 C4        -10.1695   -1.2072   61.8147 C.ar    1  ZINC000965273005   -0.0900
      5 C5        -11.4695   -0.7344   61.8096 C.ar    1  ZINC000965273005   -0.1300
      6 C6        -12.3001   -1.0024   60.7409 C.ar    1  ZINC000965273005   -0.0900
      7 C7        -11.8242   -1.7474   59.6610 C.ar    1  ZINC000965273005   -0.1300
      8 C8        -12.7086   -2.0385   58.5125 C.2     1  ZINC000965273005    0.5800
      9 O9        -13.1993   -3.1435   58.3881 O.2     1  ZINC000965273005   -0.5200
     10 N10       -12.9706   -1.0785   57.6036 N.am    1  ZINC000965273005   -0.6100
     11 C11       -12.4395    0.2966   57.6288 C.3     1  ZINC000965273005    0.0900
     12 C12       -12.4926    0.7693   56.1547 C.3     1  ZINC000965273005    0.1500
     13 H13       -12.5496    1.8563   56.0947 H       1  ZINC000965273005    0.1200
     14 N14       -11.3434    0.2642   55.3993 N.am    1  ZINC000965273005   -0.7100
     15 C15       -10.7336    1.0531   54.4926 C.2     1  ZINC000965273005    0.6000
     16 O16       -11.1381    2.1837   54.3003 O.2     1  ZINC000965273005   -0.5400
     17 C17        -9.5760    0.5453   53.7338 C.2     1  ZINC000965273005   -0.2800
     18 C18        -9.5922    0.0605   52.4415 C.2     1  ZINC000965273005    0.1000
     19 N19        -8.3360   -0.2972   52.1306 N.pl3   1  ZINC000965273005   -0.3600
     20 C20        -7.8986   -0.8630   50.8520 C.3     1  ZINC000965273005    0.1000
     21 N21        -7.5149   -0.0377   53.2336 N.2     1  ZINC000965273005   -0.3000
     22 C22        -8.2413    0.4694   54.1911 C.2     1  ZINC000965273005    0.1700
     23 C23        -7.7457    0.8907   55.5504 C.3     1  ZINC000965273005   -0.0800
     24 C24        -6.4969    1.7729   55.6048 C.3     1  ZINC000965273005   -0.1700
     25 C25        -7.8697    2.3701   55.9202 C.3     1  ZINC000965273005   -0.1600
     26 C26       -13.8118    0.1154   55.6652 C.3     1  ZINC000965273005    0.0900
     27 H27       -14.6710    0.7268   55.9414 H       1  ZINC000965273005    0.0900
     28 O28       -13.7775   -0.0961   54.2524 O.3     1  ZINC000965273005   -0.5500
     29 C29       -13.8283   -1.2308   56.4192 C.3     1  ZINC000965273005    0.0600
     30 H30        -9.6349   -2.3650   57.7348 H       1  ZINC000965273005    0.0800
     31 H31        -9.1722   -3.6693   58.8542 H       1  ZINC000965273005    0.0700
     32 H32       -10.7935   -3.6602   58.1198 H       1  ZINC000965273005    0.0700
     33 H33        -8.6770   -2.3171   60.7597 H       1  ZINC000965273005    0.1300
     34 H34        -9.5236   -0.9952   62.6539 H       1  ZINC000965273005    0.1300
     35 H35       -11.8353   -0.1545   62.6440 H       1  ZINC000965273005    0.1300
     36 H36       -13.3150   -0.6330   60.7382 H       1  ZINC000965273005    0.1300
     37 H37       -13.0649    0.9335   58.2543 H       1  ZINC000965273005    0.0900
     38 H38       -11.4114    0.2995   57.9912 H       1  ZINC000965273005    0.0900
     39 H39       -11.0215   -0.6380   55.5518 H       1  ZINC000965273005    0.4000
     40 H40       -10.4567   -0.0175   51.7987 H       1  ZINC000965273005    0.1800
     41 H41        -7.6091   -0.0569   50.1779 H       1  ZINC000965273005    0.0800
     42 H42        -7.0459   -1.5212   51.0187 H       1  ZINC000965273005    0.1000
     43 H43        -8.7155   -1.4320   50.4082 H       1  ZINC000965273005    0.0900
     44 H44        -7.8810    0.1597   56.3476 H       1  ZINC000965273005    0.1400
     45 H45        -5.8101    1.6224   56.4378 H       1  ZINC000965273005    0.1000
     46 H46        -6.0338    2.0487   54.6573 H       1  ZINC000965273005    0.1000
     47 H47        -8.3097    3.0387   55.1803 H       1  ZINC000965273005    0.0900
     48 H48        -8.0861    2.6124   56.9607 H       1  ZINC000965273005    0.1000
     49 H49       -13.5036    0.6801   53.7450 H       1  ZINC000965273005    0.3900
     50 H50       -13.4424   -2.0211   55.7753 H       1  ZINC000965273005    0.0800
     51 H51       -14.8451   -1.4681   56.7321 H       1  ZINC000965273005    0.0800
@<TRIPOS>BOND
     1     1     2    1
     2     1    30    1
     3     1    31    1
     4     1    32    1
     5     2     7   ar
     6     2     3   ar
     7     3     4   ar
     8     3    33    1
     9     4     5   ar
    10     4    34    1
    11     5     6   ar
    12     5    35    1
    13     6     7   ar
    14     6    36    1
    15     7     8    1
    16     8     9    2
    17     8    10   am
    18    10    29    1
    19    10    11    1
    20    11    12    1
    21    11    37    1
    22    11    38    1
    23    12    13    1
    24    12    14    1
    25    12    26    1
    26    14    15   am
    27    14    39    1
    28    15    16    2
    29    15    17    1
    30    17    22    1
    31    17    18    2
    32    18    19    1
    33    18    40    1
    34    19    20    1
    35    19    21    1
    36    20    41    1
    37    20    42    1
    38    20    43    1
    39    21    22    2
    40    22    23    1
    41    23    25    1
    42    23    24    1
    43    23    44    1
    44    24    25    1
    45    24    45    1
    46    24    46    1
    47    25    47    1
    48    25    48    1
    49    26    27    1
    50    26    28    1
    51    26    29    1
    52    28    49    1
    53    29    50    1
    54    29    51    1
@<TRIPOS>SUBSTRUCTURE
     1 ZINC000965273005        1 TEMP              0 ****  ****    0 ROOT


##########                                Name:    ZINC000793092912
##########                DOCK_Rotatable_Bonds:                   4
##########                         Heavy_Atoms:                  26
##########                    Molecular_Weight:               407.2
##########                DOCK_Rotatable_Bonds:                   4
##########                       Formal_Charge:         2.90573e-07
##########                     HBond_Acceptors:                  10
##########                        HBond_Donors:                   1
##########                         Heavy_Atoms:                  26
##########                          Grid_Score:          -22.970522
##########                     Grid_vdw_energy:          -22.640015
##########                      Grid_es_energy:           -0.330508
##########           Internal_energy_repulsive:           13.868923

@<TRIPOS>MOLECULE
ZINC000793092912
 40 43 1 0 0
SMALL
USER_CHARGES


@<TRIPOS>ATOM
      1 C1        -17.2092   -1.1336   57.7062 C.3     1  ZINC000793092912   -0.1300
      2 C2        -15.9127   -1.5990   58.3722 C.3     1  ZINC000793092912   -0.0800
      3 C3        -15.2267   -2.7786   57.7003 C.3     1  ZINC000793092912   -0.1100
      4 C4        -13.7574   -2.5166   57.4282 C.3     1  ZINC000793092912    0.1100
      5 N5        -13.1114   -1.8356   58.5375 N.am    1  ZINC000793092912   -0.5700
      6 C6        -12.0226   -2.3971   59.0992 C.2     1  ZINC000793092912    0.5100
      7 O7        -11.5985   -3.4531   58.6774 O.2     1  ZINC000793092912   -0.5100
      8 C8        -11.3381   -1.7201   60.2406 C.2     1  ZINC000793092912    0.5100
      9 O9        -11.6706   -1.9684   61.3814 O.2     1  ZINC000793092912   -0.4900
     10 N10       -10.3511   -0.8333   60.0044 N.am    1  ZINC000793092912   -0.6400
     11 C11        -9.7100   -0.1992   61.0734 C.ar    1  ZINC000793092912    0.1600
     12 C12        -9.5388    1.1789   61.0620 C.ar    1  ZINC000793092912   -0.1200
     13 C13        -8.9055    1.8067   62.1176 C.ar    1  ZINC000793092912   -0.0600
     14 C14        -8.4390    1.0636   63.1898 C.ar    1  ZINC000793092912    0.0200
     15 O15        -7.7913    1.4349   64.3335 O.3     1  ZINC000793092912   -0.2800
     16 C16        -7.9312    0.3198   65.2336 C.3     1  ZINC000793092912    0.5700
     17 F17        -6.7909    0.1874   66.0331 F       1  ZINC000793092912   -0.1100
     18 F18        -9.0724    0.4703   66.0287 F       1  ZINC000793092912   -0.1500
     19 O19        -8.0682   -0.8134   64.3562 O.3     1  ZINC000793092912   -0.2800
     20 C20        -8.6090   -0.3195   63.2042 C.ar    1  ZINC000793092912    0.0500
     21 C21        -9.2491   -0.9471   62.1495 C.ar    1  ZINC000793092912   -0.0900
     22 C22       -13.5976   -0.5688   59.0632 C.3     1  ZINC000793092912    0.1100
     23 C23       -15.1173   -0.5542   59.1371 C.3     1  ZINC000793092912   -0.1200
     24 H24       -15.5611    0.4413   59.1480 H       1  ZINC000793092912    0.1400
     25 C25       -15.8894   -1.6128   59.9100 C.3     1  ZINC000793092912    0.0000
     26 Cl26      -17.3742   -1.0873   60.7875 Cl      1  ZINC000793092912   -0.0800
     27 Cl27      -14.9400   -2.9257   60.7012 Cl      1  ZINC000793092912   -0.0900
     28 H28       -16.9851   -0.3488   56.9837 H       1  ZINC000793092912    0.0800
     29 H29       -17.6774   -1.9750   57.1952 H       1  ZINC000793092912    0.0700
     30 H30       -17.8885   -0.7457   58.4651 H       1  ZINC000793092912    0.0700
     31 H31       -15.3157   -3.6526   58.3454 H       1  ZINC000793092912    0.0900
     32 H32       -15.7288   -2.9873   56.7555 H       1  ZINC000793092912    0.1000
     33 H33       -13.2540   -3.4677   57.2546 H       1  ZINC000793092912    0.1100
     34 H34       -13.6669   -1.9010   56.5332 H       1  ZINC000793092912    0.0800
     35 H35       -10.0854   -0.6348   59.0928 H       1  ZINC000793092912    0.4300
     36 H36        -9.9008    1.7606   60.2271 H       1  ZINC000793092912    0.1500
     37 H37        -8.7737    2.8786   62.1067 H       1  ZINC000793092912    0.1500
     38 H38        -9.3868   -2.0181   62.1615 H       1  ZINC000793092912    0.1600
     39 H39       -13.2036   -0.4250   60.0692 H       1  ZINC000793092912    0.1400
     40 H40       -13.2464    0.2414   58.4241 H       1  ZINC000793092912    0.1000
@<TRIPOS>BOND
     1     1     2    1
     2     1    28    1
     3     1    29    1
     4     1    30    1
     5     2    23    1
     6     2    25    1
     7     2     3    1
     8     3     4    1
     9     3    31    1
    10     3    32    1
    11     4     5    1
    12     4    33    1
    13     4    34    1
    14     5     6   am
    15     5    22    1
    16     6     7    2
    17     6     8    1
    18     8     9    2
    19     8    10   am
    20    10    11    1
    21    10    35    1
    22    11    21   ar
    23    11    12   ar
    24    12    13   ar
    25    12    36    1
    26    13    14   ar
    27    13    37    1
    28    14    20   ar
    29    14    15    1
    30    15    16    1
    31    16    17    1
    32    16    18    1
    33    16    19    1
    34    19    20    1
    35    20    21   ar
    36    21    38    1
    37    22    23    1
    38    22    39    1
    39    22    40    1
    40    23    24    1
    41    23    25    1
    42    25    26    1
    43    25    27    1
@<TRIPOS>SUBSTRUCTURE
     1 ZINC000793092912        1 TEMP              0 ****  ****    0 ROOT


##########                                Name:    ZINC001135312623
##########                DOCK_Rotatable_Bonds:                   3
##########                         Heavy_Atoms:                  25
##########                    Molecular_Weight:             341.323
##########                DOCK_Rotatable_Bonds:                   3
##########                       Formal_Charge:        -1.78814e-07
##########                     HBond_Acceptors:                   8
##########                        HBond_Donors:                   2
##########                         Heavy_Atoms:                  25
##########                          Grid_Score:          -22.848572
##########                     Grid_vdw_energy:          -20.481758
##########                      Grid_es_energy:           -2.366813
##########           Internal_energy_repulsive:            4.035799

@<TRIPOS>MOLECULE
ZINC001135312623
 40 42 1 0 0
SMALL
USER_CHARGES


@<TRIPOS>ATOM
      1 C1         -8.7785    0.3032   56.8343 C.3     1  ZINC001135312623   -0.1300
      2 C2         -9.4055    0.0196   55.4936 C.ar    1  ZINC001135312623   -0.0600
      3 C3         -8.6071   -0.2640   54.4033 C.ar    1  ZINC001135312623   -0.1000
      4 C4         -9.1817   -0.5239   53.1724 C.ar    1  ZINC001135312623   -0.0300
      5 C5         -8.3073   -0.8330   51.9846 C.3     1  ZINC001135312623   -0.1300
      6 C6        -10.5568   -0.5014   53.0294 C.ar    1  ZINC001135312623   -0.0200
      7 N7        -11.1675   -0.7802   51.7103 N.pl3   1  ZINC001135312623    0.0200
      8 O8        -12.1768   -0.1896   51.3694 O.2     1  ZINC001135312623   -0.1500
      9 O9        -10.6609   -1.6002   50.9656 O.2     1  ZINC001135312623   -0.1500
     10 C10       -11.3612   -0.2193   54.1163 C.ar    1  ZINC001135312623   -0.0700
     11 C11       -10.7876    0.0374   55.3547 C.ar    1  ZINC001135312623    0.1500
     12 N12       -11.5991    0.3233   56.4572 N.am    1  ZINC001135312623   -0.6600
     13 C13       -12.2218   -0.6763   57.1128 C.2     1  ZINC001135312623    0.5600
     14 O14       -12.0780   -1.8265   56.7456 O.2     1  ZINC001135312623   -0.5000
     15 C15       -13.0780   -0.3747   58.2760 C.ar    1  ZINC001135312623   -0.1600
     16 C16       -13.8774    0.7714   58.2782 C.ar    1  ZINC001135312623   -0.0400
     17 C17       -14.6761    1.0528   59.3650 C.ar    1  ZINC001135312623   -0.1500
     18 C18       -14.6862    0.1958   60.4579 C.ar    1  ZINC001135312623    0.2000
     19 N19       -15.4850    0.4635   61.5699 N.am    1  ZINC001135312623   -0.6700
     20 C20       -15.2543   -0.1848   62.7291 C.2     1  ZINC001135312623    0.6600
     21 O21       -15.9664    0.0313   63.6896 O.2     1  ZINC001135312623   -0.4900
     22 O22       -14.2456   -1.0684   62.8354 O.3     1  ZINC001135312623   -0.3400
     23 C23       -13.9257   -1.8606   61.6588 C.3     1  ZINC001135312623    0.1100
     24 C24       -13.8907   -0.9491   60.4575 C.ar    1  ZINC001135312623   -0.1800
     25 C25       -13.0951   -1.2387   59.3761 C.ar    1  ZINC001135312623    0.0000
     26 H26        -8.6633   -0.6296   57.3862 H       1  ZINC001135312623    0.0900
     27 H27        -7.8006    0.7622   56.6883 H       1  ZINC001135312623    0.0800
     28 H28        -9.4181    0.9823   57.3982 H       1  ZINC001135312623    0.0700
     29 H29        -7.5328   -0.2824   54.5117 H       1  ZINC001135312623    0.1500
     30 H30        -8.0676   -1.8963   51.9767 H       1  ZINC001135312623    0.0900
     31 H31        -8.8353   -0.5727   51.0673 H       1  ZINC001135312623    0.0800
     32 H32        -7.3865   -0.2535   52.0508 H       1  ZINC001135312623    0.0800
     33 H33       -12.4352   -0.2018   54.0039 H       1  ZINC001135312623    0.1700
     34 H34       -11.7139    1.2408   56.7501 H       1  ZINC001135312623    0.4200
     35 H35       -13.8690    1.4372   57.4278 H       1  ZINC001135312623    0.1400
     36 H36       -15.2936    1.9388   59.3671 H       1  ZINC001135312623    0.1500
     37 H37       -16.2026    1.1132   61.5092 H       1  ZINC001135312623    0.4300
     38 H38       -12.9514   -2.3317   61.7889 H       1  ZINC001135312623    0.1300
     39 H39       -14.6883   -2.6261   61.5150 H       1  ZINC001135312623    0.1000
     40 H40       -12.4822   -2.1280   59.3767 H       1  ZINC001135312623    0.1500
@<TRIPOS>BOND
     1     1     2    1
     2     1    26    1
     3     1    27    1
     4     1    28    1
     5     2    11   ar
     6     2     3   ar
     7     3     4   ar
     8     3    29    1
     9     4     5    1
    10     4     6   ar
    11     5    30    1
    12     5    31    1
    13     5    32    1
    14     6     7    1
    15     6    10   ar
    16     7     8    2
    17     7     9    2
    18    10    11   ar
    19    10    33    1
    20    11    12    1
    21    12    13   am
    22    12    34    1
    23    13    14    2
    24    13    15    1
    25    15    25   ar
    26    15    16   ar
    27    16    17   ar
    28    16    35    1
    29    17    18   ar
    30    17    36    1
    31    18    24   ar
    32    18    19    1
    33    19    20   am
    34    19    37    1
    35    20    21    2
    36    20    22    1
    37    22    23    1
    38    23    24    1
    39    23    38    1
    40    23    39    1
    41    24    25   ar
    42    25    40    1
@<TRIPOS>SUBSTRUCTURE
     1 ZINC001135312623        1 TEMP              0 ****  ****    0 ROOT


##########                                Name:    ZINC000426037318
##########                DOCK_Rotatable_Bonds:                   7
##########                         Heavy_Atoms:                  28
##########                    Molecular_Weight:             421.904
##########                DOCK_Rotatable_Bonds:                   7
##########                       Formal_Charge:         -0.00999981
##########                     HBond_Acceptors:                   9
##########                        HBond_Donors:                   1
##########                         Heavy_Atoms:                  28
##########                          Grid_Score:          -22.533020
##########                     Grid_vdw_energy:          -22.676752
##########                      Grid_es_energy:            0.143732
##########           Internal_energy_repulsive:           19.058546

@<TRIPOS>MOLECULE
ZINC000426037318
 48 50 1 0 0
SMALL
USER_CHARGES


@<TRIPOS>ATOM
      1 C1         -7.5509   -1.0159   50.9408 C.3     1  ZINC000426037318    0.0300
      2 O2         -8.1063   -0.8389   52.2455 O.3     1  ZINC000426037318   -0.3800
      3 C3         -7.2908   -0.0606   53.1237 C.3     1  ZINC000426037318    0.1300
      4 C4         -7.8938   -0.0647   54.5047 C.ar    1  ZINC000426037318    0.3900
      5 N5         -8.8588   -0.9244   54.7778 N.ar    1  ZINC000426037318   -0.5700
      6 C6         -9.4213   -0.9697   55.9736 C.ar    1  ZINC000426037318    0.4400
      7 O7        -10.4085   -1.8578   56.2353 O.3     1  ZINC000426037318   -0.2800
      8 C8        -10.7919   -2.7333   55.1730 C.3     1  ZINC000426037318    0.0300
      9 C9         -8.9732   -0.0720   56.9799 C.ar    1  ZINC000426037318   -0.2000
     10 C10        -9.3983    0.0789   58.3048 C.2     1  ZINC000426037318    0.0500
     11 C11       -10.4918   -0.7702   58.9001 C.3     1  ZINC000426037318   -0.1200
     12 C12        -8.7682    1.0280   59.0077 C.2     1  ZINC000426037318   -0.2700
     13 C13        -9.0526    1.3556   60.4104 C.2     1  ZINC000426037318    0.6000
     14 O14        -8.6400    0.6343   61.2994 O.2     1  ZINC000426037318   -0.5000
     15 N15        -9.7705    2.4553   60.7134 N.am    1  ZINC000426037318   -0.6600
     16 C16       -10.0418    2.7678   62.0516 C.ar    1  ZINC000426037318    0.1200
     17 C17        -8.9995    2.9039   62.9581 C.ar    1  ZINC000426037318   -0.0700
     18 C18        -9.2677    3.2126   64.2776 C.ar    1  ZINC000426037318   -0.0900
     19 C19        -8.1357    3.3607   65.2614 C.3     1  ZINC000426037318   -0.1100
     20 C20       -10.5781    3.3866   64.6973 C.ar    1  ZINC000426037318    0.1300
     21 O21       -10.8407    3.6908   65.9963 O.3     1  ZINC000426037318   -0.3100
     22 C22       -12.2129    3.8549   66.3595 C.3     1  ZINC000426037318    0.0200
     23 C23       -11.6211    3.2510   63.7926 C.ar    1  ZINC000426037318   -0.1800
     24 C24       -11.3546    2.9475   62.4714 C.ar    1  ZINC000426037318   -0.0300
     25 Cl25      -12.6594    2.7783   61.3389 Cl      1  ZINC000426037318   -0.0600
     26 S26        -7.5548    1.8266   58.0223 S.3     1  ZINC000426037318    0.2200
     27 C27        -7.9464    0.8191   56.6354 C.ar    1  ZINC000426037318    0.1300
     28 N28        -7.4388    0.7830   55.3986 N.ar    1  ZINC000426037318   -0.5000
     29 H29        -8.2295   -1.6170   50.3355 H       1  ZINC000426037318    0.0900
     30 H30        -7.4100   -0.0426   50.4708 H       1  ZINC000426037318    0.0500
     31 H31        -6.5894   -1.5232   51.0209 H       1  ZINC000426037318    0.0500
     32 H32        -6.2889   -0.4881   53.1634 H       1  ZINC000426037318    0.0900
     33 H33        -7.2345    0.9636   52.7549 H       1  ZINC000426037318    0.0800
     34 H34        -9.9335   -3.3314   54.8674 H       1  ZINC000426037318    0.0700
     35 H35       -11.5902   -3.3919   55.5152 H       1  ZINC000426037318    0.1100
     36 H36       -11.1445   -2.1445   54.3262 H       1  ZINC000426037318    0.0700
     37 H37       -10.0555   -1.6637   59.3468 H       1  ZINC000426037318    0.0900
     38 H38       -11.0177   -0.2007   59.6664 H       1  ZINC000426037318    0.1000
     39 H39       -11.1931   -1.0605   58.1178 H       1  ZINC000426037318    0.0800
     40 H40       -10.0992    3.0304   60.0047 H       1  ZINC000426037318    0.4100
     41 H41        -7.9789    2.7681   62.6319 H       1  ZINC000426037318    0.1600
     42 H42        -7.8012    4.3979   65.2768 H       1  ZINC000426037318    0.0700
     43 H43        -8.4788    3.0746   66.2556 H       1  ZINC000426037318    0.0700
     44 H44        -7.3086    2.7165   64.9632 H       1  ZINC000426037318    0.0700
     45 H45       -12.6491    4.6651   65.7751 H       1  ZINC000426037318    0.0600
     46 H46       -12.7547    2.9305   66.1600 H       1  ZINC000426037318    0.0600
     47 H47       -12.2817    4.0946   67.4207 H       1  ZINC000426037318    0.1000
     48 H48       -12.6413    3.3867   64.1203 H       1  ZINC000426037318    0.1500
@<TRIPOS>BOND
     1     1     2    1
     2     1    29    1
     3     1    30    1
     4     1    31    1
     5     2     3    1
     6     3     4    1
     7     3    32    1
     8     3    33    1
     9     4    28   ar
    10     4     5   ar
    11     5     6   ar
    12     6     7    1
    13     6     9   ar
    14     7     8    1
    15     8    34    1
    16     8    35    1
    17     8    36    1
    18     9    27   ar
    19     9    10    1
    20    10    11    1
    21    10    12    2
    22    11    37    1
    23    11    38    1
    24    11    39    1
    25    12    13    1
    26    12    26    1
    27    13    14    2
    28    13    15   am
    29    15    16    1
    30    15    40    1
    31    16    24   ar
    32    16    17   ar
    33    17    18   ar
    34    17    41    1
    35    18    19    1
    36    18    20   ar
    37    19    42    1
    38    19    43    1
    39    19    44    1
    40    20    21    1
    41    20    23   ar
    42    21    22    1
    43    22    45    1
    44    22    46    1
    45    22    47    1
    46    23    24   ar
    47    23    48    1
    48    24    25    1
    49    26    27    1
    50    27    28   ar
@<TRIPOS>SUBSTRUCTURE
     1 ZINC000426037318        1 TEMP              0 ****  ****    0 ROOT


##########                                Name:    ZINC000482962466
##########                DOCK_Rotatable_Bonds:                   2
##########                         Heavy_Atoms:                  25
##########                    Molecular_Weight:             404.303
##########                DOCK_Rotatable_Bonds:                   2
##########                       Formal_Charge:           0.0200002
##########                     HBond_Acceptors:                   4
##########                        HBond_Donors:                   0
##########                         Heavy_Atoms:                  25
##########                          Grid_Score:          -22.269161
##########                     Grid_vdw_energy:          -21.500492
##########                      Grid_es_energy:           -0.768670
##########           Internal_energy_repulsive:            6.491126

@<TRIPOS>MOLECULE
ZINC000482962466
 47 50 1 0 0
SMALL
USER_CHARGES


@<TRIPOS>ATOM
      1 C1        -11.0154   -2.7176   55.8446 C.3     1  ZINC000482962466   -0.1400
      2 C2        -10.5176   -1.9362   57.0622 C.3     1  ZINC000482962466    0.0700
      3 H3         -9.4743   -2.1870   57.2539 H       1  ZINC000482962466    0.0700
      4 C4        -11.3653   -2.3007   58.2863 C.3     1  ZINC000482962466    0.0800
      5 N5        -10.9930   -1.4055   59.3931 N.am    1  ZINC000482962466   -0.6100
      6 C6        -10.6826   -1.8972   60.6090 C.2     1  ZINC000482962466    0.5600
      7 O7        -10.7078   -3.0968   60.8040 O.2     1  ZINC000482962466   -0.5200
      8 C8        -10.3117   -0.9782   61.7049 C.ar    1  ZINC000482962466   -0.1100
      9 C9        -11.3004   -0.1874   62.3170 C.ar    1  ZINC000482962466   -0.0700
     10 C10       -10.9846    0.6643   63.3257 C.ar    1  ZINC000482962466   -0.1000
     11 C11        -9.6542    0.7645   63.7719 C.ar    1  ZINC000482962466   -0.0400
     12 C12        -9.3035    1.6385   64.8140 C.ar    1  ZINC000482962466   -0.0700
     13 C13        -8.0068    1.7136   65.2248 C.ar    1  ZINC000482962466   -0.0800
     14 Br14       -7.5415    2.8919   66.6287 Br      1  ZINC000482962466   -0.0400
     15 C15        -7.0173    0.9343   64.6258 C.ar    1  ZINC000482962466   -0.1000
     16 C16        -7.3194    0.0768   63.6135 C.ar    1  ZINC000482962466   -0.0900
     17 C17        -8.6479   -0.0282   63.1628 C.ar    1  ZINC000482962466   -0.0500
     18 C18        -8.9938   -0.9064   62.1255 C.ar    1  ZINC000482962466   -0.0700
     19 C19       -10.9699    0.0429   59.1330 C.3     1  ZINC000482962466    0.0700
     20 C20       -10.1444    0.2932   57.8671 C.3     1  ZINC000482962466    0.0800
     21 C21       -10.2624    1.7649   57.4634 C.3     1  ZINC000482962466   -0.1100
     22 C22        -9.3703    2.0217   56.2447 C.3     1  ZINC000482962466   -0.1500
     23 C23        -7.9314    1.6229   56.5827 C.3     1  ZINC000482962466    0.0600
     24 O24        -7.8984    0.2501   56.9782 O.3     1  ZINC000482962466   -0.3700
     25 C25        -8.6765   -0.0405   58.1412 C.3     1  ZINC000482962466    0.0400
     26 O26       -10.6329   -0.5337   56.8094 O.3     1  ZINC000482962466   -0.3500
     27 H27       -10.4135   -2.4565   54.9743 H       1  ZINC000482962466    0.0700
     28 H28       -10.9290   -3.7867   56.0387 H       1  ZINC000482962466    0.0800
     29 H29       -12.0587   -2.4663   55.6533 H       1  ZINC000482962466    0.0700
     30 H30       -12.4222   -2.1742   58.0516 H       1  ZINC000482962466    0.0800
     31 H31       -11.1734   -3.3354   58.5706 H       1  ZINC000482962466    0.1000
     32 H32       -12.3240   -0.2583   61.9799 H       1  ZINC000482962466    0.1400
     33 H33       -11.7550    1.2655   63.7857 H       1  ZINC000482962466    0.1400
     34 H34       -10.0586    2.2487   65.2873 H       1  ZINC000482962466    0.1400
     35 H35        -5.9968    1.0127   64.9703 H       1  ZINC000482962466    0.1400
     36 H36        -6.5431   -0.5202   63.1584 H       1  ZINC000482962466    0.1400
     37 H37        -8.2381   -1.5185   61.6556 H       1  ZINC000482962466    0.1400
     38 H38       -11.9873    0.4057   58.9856 H       1  ZINC000482962466    0.0900
     39 H39       -10.5138    0.5603   59.9771 H       1  ZINC000482962466    0.1000
     40 H40       -11.2983    1.9919   57.2113 H       1  ZINC000482962466    0.0800
     41 H41        -9.9402    2.3970   58.2908 H       1  ZINC000482962466    0.0800
     42 H42        -9.7247    1.4277   55.4023 H       1  ZINC000482962466    0.0800
     43 H43        -9.4036    3.0798   55.9852 H       1  ZINC000482962466    0.0800
     44 H44        -7.2998    1.7636   55.7056 H       1  ZINC000482962466    0.1000
     45 H45        -7.5640    2.2451   57.3987 H       1  ZINC000482962466    0.0500
     46 H46        -8.3176    0.5587   58.9779 H       1  ZINC000482962466    0.0600
     47 H47        -8.5838   -1.0987   58.3855 H       1  ZINC000482962466    0.1000
@<TRIPOS>BOND
     1     1     2    1
     2     1    27    1
     3     1    28    1
     4     1    29    1
     5     2     3    1
     6     2    26    1
     7     2     4    1
     8     4     5    1
     9     4    30    1
    10     4    31    1
    11     5     6   am
    12     5    19    1
    13     6     7    2
    14     6     8    1
    15     8    18   ar
    16     8     9   ar
    17     9    10   ar
    18     9    32    1
    19    10    11   ar
    20    10    33    1
    21    11    17   ar
    22    11    12   ar
    23    12    13   ar
    24    12    34    1
    25    13    14    1
    26    13    15   ar
    27    15    16   ar
    28    15    35    1
    29    16    17   ar
    30    16    36    1
    31    17    18   ar
    32    18    37    1
    33    19    20    1
    34    19    38    1
    35    19    39    1
    36    20    25    1
    37    20    21    1
    38    20    26    1
    39    21    22    1
    40    21    40    1
    41    21    41    1
    42    22    23    1
    43    22    42    1
    44    22    43    1
    45    23    24    1
    46    23    44    1
    47    23    45    1
    48    24    25    1
    49    25    46    1
    50    25    47    1
@<TRIPOS>SUBSTRUCTURE
     1 ZINC000482962466        1 TEMP              0 ****  ****    0 ROOT


##########                                Name:    ZINC000154446008
##########                DOCK_Rotatable_Bonds:                   5
##########                         Heavy_Atoms:                  24
##########                    Molecular_Weight:              349.41
##########                DOCK_Rotatable_Bonds:                   5
##########                       Formal_Charge:          -0.0199999
##########                     HBond_Acceptors:                   8
##########                        HBond_Donors:                   0
##########                         Heavy_Atoms:                  24
##########                          Grid_Score:          -22.051733
##########                     Grid_vdw_energy:          -21.186022
##########                      Grid_es_energy:           -0.865711
##########           Internal_energy_repulsive:           13.395552

@<TRIPOS>MOLECULE
ZINC000154446008
 43 45 1 0 0
SMALL
USER_CHARGES


@<TRIPOS>ATOM
      1 O1         -7.7483    0.3407   58.9148 O.2     1  ZINC000154446008   -0.5000
      2 C2         -8.6969   -0.0784   59.5518 C.2     1  ZINC000154446008    0.5900
      3 C3         -8.6887   -0.0005   61.0155 C.2     1  ZINC000154446008   -0.2300
      4 C4         -8.2727   -0.9912   61.8598 C.2     1  ZINC000154446008   -0.0600
      5 C5         -8.3719   -0.6508   63.1880 C.2     1  ZINC000154446008   -0.0500
      6 C6         -8.8522    0.5754   63.4254 C.2     1  ZINC000154446008   -0.2100
      7 N7         -9.0454    1.1541   64.7741 N.pl3   1  ZINC000154446008    0.0500
      8 O8         -9.3425    2.3291   64.8958 O.2     1  ZINC000154446008   -0.1300
      9 O9         -8.9072    0.4554   65.7621 O.2     1  ZINC000154446008   -0.1500
     10 S10        -9.2056    1.3856   61.9659 S.3     1  ZINC000154446008    0.3500
     11 N11        -9.7572   -0.6091   58.9110 N.am    1  ZINC000154446008   -0.6100
     12 C12       -10.9148   -1.1080   59.6666 C.3     1  ZINC000154446008    0.0800
     13 C13       -12.1768   -0.4066   59.1495 C.3     1  ZINC000154446008    0.0900
     14 N14       -12.1963   -0.4963   57.6827 N.am    1  ZINC000154446008   -0.6100
     15 C15       -13.2571   -1.0262   57.0419 C.2     1  ZINC000154446008    0.5500
     16 O16       -13.2617   -1.0952   55.8277 O.2     1  ZINC000154446008   -0.5300
     17 C17       -14.4091   -1.5212   57.8112 C.2     1  ZINC000154446008   -0.1500
     18 C18       -15.4342   -0.7143   57.9802 C.2     1  ZINC000154446008   -0.1100
     19 C19       -16.6693   -1.0833   58.7491 C.3     1  ZINC000154446008   -0.1000
     20 C20       -16.7482   -2.6017   58.9215 C.3     1  ZINC000154446008   -0.1200
     21 C21       -15.3994   -3.1022   59.4527 C.3     1  ZINC000154446008   -0.1200
     22 C22       -14.3495   -2.9197   58.3527 C.3     1  ZINC000154446008   -0.0700
     23 C23       -11.0387    0.0026   56.9271 C.3     1  ZINC000154446008    0.1000
     24 C24        -9.7791   -0.6937   57.4439 C.3     1  ZINC000154446008    0.1000
     25 H25        -7.9028   -1.9464   61.5176 H       1  ZINC000154446008    0.1800
     26 H26        -8.0837   -1.3240   63.9818 H       1  ZINC000154446008    0.1800
     27 H27       -11.0094   -2.1843   59.5225 H       1  ZINC000154446008    0.0900
     28 H28       -10.7823   -0.8885   60.7260 H       1  ZINC000154446008    0.0900
     29 H29       -13.0609   -0.8963   59.5577 H       1  ZINC000154446008    0.1100
     30 H30       -12.1632    0.6406   59.4518 H       1  ZINC000154446008    0.0800
     31 H31       -15.3841    0.2710   57.5406 H       1  ZINC000154446008    0.1100
     32 H32       -16.6393   -0.6095   59.7302 H       1  ZINC000154446008    0.0900
     33 H33       -17.5492   -0.7349   58.2084 H       1  ZINC000154446008    0.0800
     34 H34       -17.5364   -2.8491   59.6325 H       1  ZINC000154446008    0.0700
     35 H35       -16.9592   -3.0690   57.9595 H       1  ZINC000154446008    0.0700
     36 H36       -15.1159   -2.5257   60.3332 H       1  ZINC000154446008    0.0700
     37 H37       -15.4769   -4.1580   59.7121 H       1  ZINC000154446008    0.0700
     38 H38       -14.5394   -3.6323   57.5501 H       1  ZINC000154446008    0.0800
     39 H39       -13.3574   -3.1007   58.7664 H       1  ZINC000154446008    0.0700
     40 H40       -11.1712   -0.2169   55.8677 H       1  ZINC000154446008    0.1100
     41 H41       -10.9441    1.0789   57.0712 H       1  ZINC000154446008    0.0800
     42 H42        -8.8959   -0.2031   57.0350 H       1  ZINC000154446008    0.1100
     43 H43        -9.7908   -1.7413   57.1434 H       1  ZINC000154446008    0.0800
@<TRIPOS>BOND
     1     1     2    2
     2     2     3    1
     3     2    11   am
     4     3    10    1
     5     3     4    2
     6     4     5    1
     7     4    25    1
     8     5     6    2
     9     5    26    1
    10     6     7    1
    11     6    10    1
    12     7     8    2
    13     7     9    2
    14    11    24    1
    15    11    12    1
    16    12    13    1
    17    12    27    1
    18    12    28    1
    19    13    14    1
    20    13    29    1
    21    13    30    1
    22    14    15   am
    23    14    23    1
    24    15    16    2
    25    15    17    1
    26    17    22    1
    27    17    18    2
    28    18    19    1
    29    18    31    1
    30    19    20    1
    31    19    32    1
    32    19    33    1
    33    20    21    1
    34    20    34    1
    35    20    35    1
    36    21    22    1
    37    21    36    1
    38    21    37    1
    39    22    38    1
    40    22    39    1
    41    23    24    1
    42    23    40    1
    43    23    41    1
    44    24    42    1
    45    24    43    1
@<TRIPOS>SUBSTRUCTURE
     1 ZINC000154446008        1 TEMP              0 ****  ****    0 ROOT


##########                                Name:    ZINC000062882109
##########                DOCK_Rotatable_Bonds:                   8
##########                         Heavy_Atoms:                  31
##########                    Molecular_Weight:             424.497
##########                DOCK_Rotatable_Bonds:                   8
##########                       Formal_Charge:           0.0299993
##########                     HBond_Acceptors:                   7
##########                        HBond_Donors:                   1
##########                         Heavy_Atoms:                  31
##########                          Grid_Score:          -20.763985
##########                     Grid_vdw_energy:          -20.474119
##########                      Grid_es_energy:           -0.289865
##########           Internal_energy_repulsive:          187.047623

@<TRIPOS>MOLECULE
ZINC000062882109
 59 61 1 0 0
SMALL
USER_CHARGES


@<TRIPOS>ATOM
      1 C1        -16.7127    4.9138   62.5089 C.3     1  ZINC000062882109   -0.2000
      2 C2        -16.8930    3.4177   62.5011 C.2     1  ZINC000062882109    0.3900
      3 O3        -17.9717    2.9384   62.2235 O.2     1  ZINC000062882109   -0.4500
      4 C4        -15.7597    2.5381   62.8303 C.ar    1  ZINC000062882109   -0.1300
      5 C5        -15.9234    1.1493   62.8229 C.ar    1  ZINC000062882109   -0.1100
      6 C6        -14.8585    0.3291   63.1321 C.ar    1  ZINC000062882109   -0.0900
      7 C7        -13.6282    0.8750   63.4497 C.ar    1  ZINC000062882109   -0.1800
      8 C8        -13.4550    2.2531   63.4604 C.ar    1  ZINC000062882109    0.1200
      9 O9        -12.2430    2.7826   63.7736 O.3     1  ZINC000062882109   -0.2800
     10 C10       -11.1094    1.9198   63.6610 C.3     1  ZINC000062882109    0.0700
     11 H11       -11.2502    1.0494   64.3017 H       1  ZINC000062882109    0.1000
     12 C12        -9.8501    2.6733   64.0938 C.3     1  ZINC000062882109   -0.1800
     13 C13       -10.9596    1.4714   62.2300 C.2     1  ZINC000062882109    0.5200
     14 O14       -11.4186    2.1453   61.3321 O.2     1  ZINC000062882109   -0.4900
     15 N15       -10.3156    0.3215   61.9482 N.am    1  ZINC000062882109   -0.6600
     16 C16       -10.1763   -0.0954   60.6179 C.ar    1  ZINC000062882109    0.1400
     17 C17        -8.9541    0.0358   59.9728 C.ar    1  ZINC000062882109   -0.1000
     18 C18        -8.8130   -0.3726   58.6603 C.ar    1  ZINC000062882109   -0.1100
     19 C19        -9.8927   -0.9158   57.9801 C.ar    1  ZINC000062882109    0.0800
     20 O20        -9.7435   -1.3060   56.6859 O.3     1  ZINC000062882109   -0.3100
     21 C21       -10.6915   -2.2363   56.1575 C.3     1  ZINC000062882109    0.0500
     22 C22       -12.1072   -1.7366   56.4785 C.3     1  ZINC000062882109    0.0400
     23 N23       -12.2119   -1.6060   57.9419 N.am    1  ZINC000062882109   -0.5500
     24 C24       -13.3180   -2.0054   58.6003 C.2     1  ZINC000062882109    0.5300
     25 O25       -13.3818   -1.8880   59.8058 O.2     1  ZINC000062882109   -0.5100
     26 C26       -14.4756   -2.5977   57.8385 C.3     1  ZINC000062882109   -0.0800
     27 C27       -15.6543   -2.8148   58.7896 C.3     1  ZINC000062882109   -0.1300
     28 C28       -14.8926   -1.6413   56.7195 C.3     1  ZINC000062882109   -0.1600
     29 C29       -14.0551   -3.9385   57.2331 C.3     1  ZINC000062882109   -0.1500
     30 C30       -11.1180   -1.0509   58.6281 C.ar    1  ZINC000062882109    0.1000
     31 C31       -11.2591   -0.6455   59.9446 C.ar    1  ZINC000062882109   -0.1400
     32 C32       -14.5135    3.0872   63.1461 C.ar    1  ZINC000062882109   -0.0900
     33 H33       -17.6539    5.3946   62.2422 H       1  ZINC000062882109    0.0900
     34 H34       -16.4083    5.2380   63.5040 H       1  ZINC000062882109    0.1000
     35 H35       -15.9455    5.1911   61.7859 H       1  ZINC000062882109    0.1000
     36 H36       -16.8828    0.7195   62.5757 H       1  ZINC000062882109    0.1400
     37 H37       -14.9859   -0.7433   63.1266 H       1  ZINC000062882109    0.1300
     38 H38       -12.7986    0.2270   63.6908 H       1  ZINC000062882109    0.1300
     39 H39        -9.9585    2.9976   65.1288 H       1  ZINC000062882109    0.0800
     40 H40        -8.9854    2.0152   64.0080 H       1  ZINC000062882109    0.0800
     41 H41        -9.7092    3.5438   63.4532 H       1  ZINC000062882109    0.0800
     42 H42        -9.9485   -0.2174   62.6663 H       1  ZINC000062882109    0.4100
     43 H43        -8.1107    0.4585   60.4984 H       1  ZINC000062882109    0.1400
     44 H44        -7.8602   -0.2681   58.1628 H       1  ZINC000062882109    0.1400
     45 H45       -10.5666   -2.3111   55.0772 H       1  ZINC000062882109    0.1300
     46 H46       -10.5369   -3.2142   56.6135 H       1  ZINC000062882109    0.0700
     47 H47       -12.2731   -0.7676   56.0078 H       1  ZINC000062882109    0.0900
     48 H48       -12.8436   -2.4548   56.1177 H       1  ZINC000062882109    0.1300
     49 H49       -15.9539   -1.8596   59.2208 H       1  ZINC000062882109    0.0600
     50 H50       -16.4916   -3.2432   58.2386 H       1  ZINC000062882109    0.0700
     51 H51       -15.3572   -3.4962   59.5867 H       1  ZINC000062882109    0.0700
     52 H52       -14.0530   -1.4866   56.0420 H       1  ZINC000062882109    0.0700
     53 H53       -15.7299   -2.0696   56.1686 H       1  ZINC000062882109    0.0800
     54 H54       -15.1922   -0.6861   57.1508 H       1  ZINC000062882109    0.0600
     55 H55       -13.9494   -4.6782   58.0266 H       1  ZINC000062882109    0.0700
     56 H56       -14.8139   -4.2713   56.5249 H       1  ZINC000062882109    0.0800
     57 H57       -13.1025   -3.8210   56.7165 H       1  ZINC000062882109    0.0700
     58 H58       -12.2101   -0.7526   60.4452 H       1  ZINC000062882109    0.1800
     59 H59       -14.3797    4.1589   63.1536 H       1  ZINC000062882109    0.1400
@<TRIPOS>BOND
     1     1     2    1
     2     1    33    1
     3     1    34    1
     4     1    35    1
     5     2     3    2
     6     2     4    1
     7     4    32   ar
     8     4     5   ar
     9     5     6   ar
    10     5    36    1
    11     6     7   ar
    12     6    37    1
    13     7     8   ar
    14     7    38    1
    15     8     9    1
    16     8    32   ar
    17     9    10    1
    18    10    11    1
    19    10    12    1
    20    10    13    1
    21    12    39    1
    22    12    40    1
    23    12    41    1
    24    13    14    2
    25    13    15   am
    26    15    16    1
    27    15    42    1
    28    16    31   ar
    29    16    17   ar
    30    17    18   ar
    31    17    43    1
    32    18    19   ar
    33    18    44    1
    34    19    30   ar
    35    19    20    1
    36    20    21    1
    37    21    22    1
    38    21    45    1
    39    21    46    1
    40    22    23    1
    41    22    47    1
    42    22    48    1
    43    23    24   am
    44    23    30    1
    45    24    25    2
    46    24    26    1
    47    26    27    1
    48    26    28    1
    49    26    29    1
    50    27    49    1
    51    27    50    1
    52    27    51    1
    53    28    52    1
    54    28    53    1
    55    28    54    1
    56    29    55    1
    57    29    56    1
    58    29    57    1
    59    30    31   ar
    60    31    58    1
    61    32    59    1
@<TRIPOS>SUBSTRUCTURE
     1 ZINC000062882109        1 TEMP              0 ****  ****    0 ROOT


##########                                Name:    ZINC000569288350
##########                DOCK_Rotatable_Bonds:                   3
##########                         Heavy_Atoms:                  19
##########                    Molecular_Weight:             393.559
##########                DOCK_Rotatable_Bonds:                   3
##########                       Formal_Charge:           0.0299999
##########                     HBond_Acceptors:                   5
##########                        HBond_Donors:                   1
##########                         Heavy_Atoms:                  19
##########                          Grid_Score:          -20.550646
##########                     Grid_vdw_energy:          -19.413515
##########                      Grid_es_energy:           -1.137131
##########           Internal_energy_repulsive:            6.647071

@<TRIPOS>MOLECULE
ZINC000569288350
 26 27 1 0 0
SMALL
USER_CHARGES


@<TRIPOS>ATOM
      1 O1         -1.2766    3.4835   49.9223 O.2     1  ZINC000569288350   -0.4800
      2 C2         -1.7571    2.6309   50.6439 C.2     1  ZINC000569288350    0.5700
      3 N3         -2.1677    1.4586   50.1209 N.am    1  ZINC000569288350   -0.6600
      4 C4         -2.0463    1.2249   48.7468 C.ar    1  ZINC000569288350    0.1800
      5 C5         -3.0906    1.5490   47.8911 C.ar    1  ZINC000569288350   -0.1200
      6 C6         -2.9691    1.3176   46.5345 C.ar    1  ZINC000569288350   -0.0600
      7 C7         -1.8091    0.7631   46.0268 C.ar    1  ZINC000569288350   -0.1500
      8 C8         -0.7642    0.4380   46.8761 C.ar    1  ZINC000569288350    0.1300
      9 F9          0.3685   -0.1033   46.3769 F       1  ZINC000569288350   -0.1200
     10 C10        -0.8780    0.6733   48.2352 C.ar    1  ZINC000569288350   -0.1000
     11 Cl11        0.4310    0.2669   49.3005 Cl      1  ZINC000569288350   -0.0400
     12 C12        -1.8853    2.8775   52.0937 C.ar    1  ZINC000569288350   -0.1400
     13 C13        -3.1509    2.9755   52.6808 C.ar    1  ZINC000569288350    0.1400
     14 F14        -4.2615    2.8443   51.9229 F       1  ZINC000569288350   -0.1200
     15 C15        -3.2616    3.2068   54.0399 C.ar    1  ZINC000569288350   -0.1300
     16 C16        -2.1257    3.3411   54.8159 C.ar    1  ZINC000569288350   -0.0600
     17 C17        -0.8702    3.2456   54.2406 C.ar    1  ZINC000569288350   -0.0900
     18 C18        -0.7429    3.0085   52.8877 C.ar    1  ZINC000569288350   -0.0500
     19 I19         1.1594    2.8647   52.0217 I       1  ZINC000569288350    0.0000
     20 H20        -2.5474    0.7769   50.6971 H       1  ZINC000569288350    0.4200
     21 H21        -3.9981    1.9816   48.2860 H       1  ZINC000569288350    0.1600
     22 H22        -3.7819    1.5699   45.8696 H       1  ZINC000569288350    0.1500
     23 H23        -1.7174    0.5827   44.9659 H       1  ZINC000569288350    0.1500
     24 H24        -4.2378    3.2828   54.4957 H       1  ZINC000569288350    0.1500
     25 H25        -2.2180    3.5219   55.8766 H       1  ZINC000569288350    0.1500
     26 H26         0.0124    3.3520   54.8539 H       1  ZINC000569288350    0.1500
@<TRIPOS>BOND
     1     1     2    2
     2     2     3   am
     3     2    12    1
     4     3     4    1
     5     3    20    1
     6     4    10   ar
     7     4     5   ar
     8     5     6   ar
     9     5    21    1
    10     6     7   ar
    11     6    22    1
    12     7     8   ar
    13     7    23    1
    14     8     9    1
    15     8    10   ar
    16    10    11    1
    17    12    18   ar
    18    12    13   ar
    19    13    14    1
    20    13    15   ar
    21    15    16   ar
    22    15    24    1
    23    16    17   ar
    24    16    25    1
    25    17    18   ar
    26    17    26    1
    27    18    19    1
@<TRIPOS>SUBSTRUCTURE
     1 ZINC000569288350        1 TEMP              0 ****  ****    0 ROOT


##########                                Name:    ZINC000950547210
##########                DOCK_Rotatable_Bonds:                   5
##########                         Heavy_Atoms:                  25
##########                    Molecular_Weight:              346.47
##########                DOCK_Rotatable_Bonds:                   5
##########                       Formal_Charge:         5.58794e-07
##########                     HBond_Acceptors:                   5
##########                        HBond_Donors:                   1
##########                         Heavy_Atoms:                  25
##########                          Grid_Score:          -20.057615
##########                     Grid_vdw_energy:          -20.574892
##########                      Grid_es_energy:            0.517277
##########           Internal_energy_repulsive:           21.108871

@<TRIPOS>MOLECULE
ZINC000950547210
 55 58 1 0 0
SMALL
USER_CHARGES


@<TRIPOS>ATOM
      1 O1        -11.1131   -1.6574   60.7749 O.2     1  ZINC000950547210   -0.5200
      2 C2        -11.7649   -0.8304   61.3768 C.2     1  ZINC000950547210    0.5200
      3 N3        -13.1078   -0.8184   61.2640 N.am    1  ZINC000950547210   -0.7300
      4 C4        -13.7800   -1.8006   60.4096 C.3     1  ZINC000950547210    0.1300
      5 H5        -13.1898   -2.7163   60.3744 H       1  ZINC000950547210    0.0900
      6 C6        -15.1670   -2.1083   60.9787 C.3     1  ZINC000950547210   -0.1300
      7 C7        -15.8570   -3.1586   60.1053 C.3     1  ZINC000950547210   -0.1300
      8 C8        -16.0281   -2.6052   58.6872 C.3     1  ZINC000950547210    0.1000
      9 N9        -14.7162   -2.1720   58.1871 N.am    1  ZINC000950547210   -0.6100
     10 C10       -14.2454   -2.6282   57.0095 C.2     1  ZINC000950547210    0.5600
     11 O11       -14.9082   -3.4059   56.3499 O.2     1  ZINC000950547210   -0.5200
     12 C12       -12.9301   -2.1854   56.5220 C.2     1  ZINC000950547210   -0.1400
     13 C13       -12.7850   -0.9338   56.1257 C.2     1  ZINC000950547210   -0.1500
     14 C14       -11.4820   -0.3959   55.6050 C.3     1  ZINC000950547210    0.0900
     15 O15       -10.4140   -1.2820   55.9455 O.3     1  ZINC000950547210   -0.3700
     16 C16       -10.6786   -2.6443   55.5893 C.3     1  ZINC000950547210    0.0600
     17 C17       -11.7948   -3.1718   56.4976 C.3     1  ZINC000950547210   -0.1100
     18 C18       -13.9268   -1.2321   58.9948 C.3     1  ZINC000950547210    0.1000
     19 C19       -11.0735    0.1799   62.2556 C.3     1  ZINC000950547210   -0.1000
     20 H20       -10.9269   -0.2429   63.2495 H       1  ZINC000950547210    0.1000
     21 C21       -11.9351    1.4400   62.3594 C.3     1  ZINC000950547210   -0.1100
     22 C22       -11.1517    2.6393   61.8220 C.3     1  ZINC000950547210   -0.0900
     23 C23        -9.8753    2.8249   62.6449 C.3     1  ZINC000950547210   -0.1100
     24 C24        -9.0138    1.5650   62.5411 C.3     1  ZINC000950547210   -0.1100
     25 C25        -9.7157    0.5392   61.6488 C.3     1  ZINC000950547210   -0.0600
     26 C26        -9.9214    1.1327   60.2537 C.3     1  ZINC000950547210   -0.1300
     27 C27       -10.7830    2.3928   60.3576 C.3     1  ZINC000950547210   -0.1200
     28 H28       -13.6294   -0.1594   61.7485 H       1  ZINC000950547210    0.4000
     29 H29       -15.0661   -2.4902   61.9946 H       1  ZINC000950547210    0.0800
     30 H30       -15.7647   -1.1969   60.9912 H       1  ZINC000950547210    0.0700
     31 H31       -15.2474   -4.0617   60.0723 H       1  ZINC000950547210    0.0700
     32 H32       -16.8352   -3.3945   60.5243 H       1  ZINC000950547210    0.0900
     33 H33       -16.4282   -3.3832   58.0371 H       1  ZINC000950547210    0.0900
     34 H34       -16.7106   -1.7555   58.7064 H       1  ZINC000950547210    0.0700
     35 H35       -13.6362   -0.2711   56.1773 H       1  ZINC000950547210    0.1200
     36 H36       -11.5387   -0.2979   54.5210 H       1  ZINC000950547210    0.0700
     37 H37       -11.2936    0.5833   56.0452 H       1  ZINC000950547210    0.1100
     38 H38       -10.9942   -2.6957   54.5473 H       1  ZINC000950547210    0.0600
     39 H39        -9.7782   -3.2418   55.7323 H       1  ZINC000950547210    0.1000
     40 H40       -11.4061   -3.3121   57.5062 H       1  ZINC000950547210    0.0900
     41 H41       -12.1562   -4.1251   56.1122 H       1  ZINC000950547210    0.0900
     42 H42       -14.4377   -0.2702   59.0394 H       1  ZINC000950547210    0.0700
     43 H43       -12.9412   -1.1042   58.5473 H       1  ZINC000950547210    0.1000
     44 H44       -12.8444    1.3077   61.7731 H       1  ZINC000950547210    0.0700
     45 H45       -12.1978    1.6156   63.4026 H       1  ZINC000950547210    0.0700
     46 H46       -11.7656    3.5369   61.8959 H       1  ZINC000950547210    0.0700
     47 H47        -9.3172    3.6793   62.2620 H       1  ZINC000950547210    0.0600
     48 H48       -10.1380    3.0006   63.6882 H       1  ZINC000950547210    0.0600
     49 H49        -8.0463    1.8209   62.1088 H       1  ZINC000950547210    0.0700
     50 H50        -8.8671    1.1421   63.5349 H       1  ZINC000950547210    0.0600
     51 H51        -9.1018   -0.3584   61.5749 H       1  ZINC000950547210    0.0800
     52 H52        -8.9540    1.3887   59.8215 H       1  ZINC000950547210    0.0600
     53 H53       -10.4215    0.4020   59.6181 H       1  ZINC000950547210    0.0900
     54 H54       -11.6923    2.2605   59.7713 H       1  ZINC000950547210    0.0600
     55 H55       -10.2249    3.2472   59.9747 H       1  ZINC000950547210    0.0600
@<TRIPOS>BOND
     1     1     2    2
     2     2     3   am
     3     2    19    1
     4     3     4    1
     5     3    28    1
     6     4     5    1
     7     4    18    1
     8     4     6    1
     9     6     7    1
    10     6    29    1
    11     6    30    1
    12     7     8    1
    13     7    31    1
    14     7    32    1
    15     8     9    1
    16     8    33    1
    17     8    34    1
    18     9    10   am
    19     9    18    1
    20    10    11    2
    21    10    12    1
    22    12    17    1
    23    12    13    2
    24    13    14    1
    25    13    35    1
    26    14    15    1
    27    14    36    1
    28    14    37    1
    29    15    16    1
    30    16    17    1
    31    16    38    1
    32    16    39    1
    33    17    40    1
    34    17    41    1
    35    18    42    1
    36    18    43    1
    37    19    20    1
    38    19    25    1
    39    19    21    1
    40    21    22    1
    41    21    44    1
    42    21    45    1
    43    22    27    1
    44    22    23    1
    45    22    46    1
    46    23    24    1
    47    23    47    1
    48    23    48    1
    49    24    25    1
    50    24    49    1
    51    24    50    1
    52    25    26    1
    53    25    51    1
    54    26    27    1
    55    26    52    1
    56    26    53    1
    57    27    54    1
    58    27    55    1
@<TRIPOS>SUBSTRUCTURE
     1 ZINC000950547210        1 TEMP              0 ****  ****    0 ROOT

