
##########                                Name:    ZINC000474251633
##########                DOCK_Rotatable_Bonds:                   8
##########                         Heavy_Atoms:                  28
##########                    Molecular_Weight:             416.931
##########                DOCK_Rotatable_Bonds:                   8
##########                       Formal_Charge:          0.00999953
##########                     HBond_Acceptors:                   8
##########                        HBond_Donors:                   2
##########                         Heavy_Atoms:                  28
##########                          Grid_Score:          -38.448948
##########                     Grid_vdw_energy:          -33.576756
##########                      Grid_es_energy:           -4.872193
##########           Internal_energy_repulsive:           10.035927

@<TRIPOS>MOLECULE
ZINC000474251633
 49 52 1 0 0
SMALL
USER_CHARGES


@<TRIPOS>ATOM
      1 O1         -5.5483    2.8777   66.1676 O.2     1  ZINC000474251633   -0.5300
      2 C2         -5.5505    1.8247   65.5658 C.2     1  ZINC000474251633    0.5100
      3 C3         -6.4317    0.6936   66.0296 C.3     1  ZINC000474251633    0.1000
      4 N4         -7.5995    0.5925   65.1508 N.am    1  ZINC000474251633   -0.7100
      5 C5         -8.5602   -0.3169   65.4086 C.2     1  ZINC000474251633    0.5900
      6 O6         -8.4585   -1.0528   66.3722 O.2     1  ZINC000474251633   -0.5000
      7 C7         -9.7297   -0.4194   64.5268 C.2     1  ZINC000474251633   -0.2300
      8 C8        -10.9077    0.1742   64.7529 C.2     1  ZINC000474251633    0.0400
      9 Cl9       -11.1943    1.1603   66.1526 Cl      1  ZINC000474251633   -0.0100
     10 C10       -11.8971   -0.0538   63.7810 C.ar    1  ZINC000474251633   -0.0900
     11 C11       -13.2263    0.4292   63.7374 C.ar    1  ZINC000474251633   -0.0600
     12 C12       -14.0471    0.0986   62.7050 C.ar    1  ZINC000474251633   -0.1200
     13 C13       -13.5973   -0.7181   61.6752 C.ar    1  ZINC000474251633   -0.0800
     14 C14       -12.3116   -1.2033   61.6895 C.ar    1  ZINC000474251633   -0.0900
     15 C15       -11.4484   -0.8768   62.7404 C.ar    1  ZINC000474251633   -0.1200
     16 S16        -9.7726   -1.3309   63.0280 S.3     1  ZINC000474251633    0.1700
     17 N17        -4.7689    1.6680   64.4790 N.am    1  ZINC000474251633   -0.7200
     18 C18        -3.9122    2.7675   64.0283 C.3     1  ZINC000474251633    0.2100
     19 C19        -2.6568    2.2061   63.4120 C.2     1  ZINC000474251633    0.0500
     20 N20        -2.5048    1.8621   62.1589 N.2     1  ZINC000474251633   -0.2700
     21 N21        -1.1971    1.3888   61.9905 N.pl3   1  ZINC000474251633   -0.3600
     22 C22        -0.6114    0.9013   60.7392 C.3     1  ZINC000474251633    0.1500
     23 C23        -1.2326    1.6462   59.5397 C.3     1  ZINC000474251633   -0.1400
     24 C24        -0.2331    2.7923   59.2453 C.3     1  ZINC000474251633   -0.1300
     25 C25         1.1401    2.1207   59.4948 C.3     1  ZINC000474251633   -0.1200
     26 C26         0.8972    1.2030   60.7106 C.3     1  ZINC000474251633   -0.1400
     27 C27        -0.5722    1.4612   63.1843 C.2     1  ZINC000474251633    0.0600
     28 C28        -1.4509    1.9685   64.0797 C.2     1  ZINC000474251633   -0.2600
     29 H29        -5.8709   -0.2406   65.9976 H       1  ZINC000474251633    0.1100
     30 H30        -6.7611    0.8848   67.0509 H       1  ZINC000474251633    0.1100
     31 H31        -7.6812    1.1800   64.3833 H       1  ZINC000474251633    0.4100
     32 H32       -13.5918    1.0649   64.5302 H       1  ZINC000474251633    0.1300
     33 H33       -15.0593    0.4746   62.6856 H       1  ZINC000474251633    0.1400
     34 H34       -14.2600   -0.9728   60.8613 H       1  ZINC000474251633    0.1400
     35 H35       -11.9667   -1.8385   60.8869 H       1  ZINC000474251633    0.1400
     36 H36        -4.7736    0.8271   63.9955 H       1  ZINC000474251633    0.4100
     37 H37        -4.4454    3.3634   63.2876 H       1  ZINC000474251633    0.0900
     38 H38        -3.6495    3.3959   64.8793 H       1  ZINC000474251633    0.0900
     39 H39        -0.7796   -0.1712   60.6414 H       1  ZINC000474251633    0.1100
     40 H40        -1.3154    0.9819   58.6794 H       1  ZINC000474251633    0.0900
     41 H41        -2.2092    2.0506   59.8059 H       1  ZINC000474251633    0.0800
     42 H42        -0.3190    3.1234   58.2104 H       1  ZINC000474251633    0.0800
     43 H43        -0.3866    3.6245   59.9323 H       1  ZINC000474251633    0.0700
     44 H44         1.4405    1.5331   58.6273 H       1  ZINC000474251633    0.0700
     45 H45         1.8951    2.8714   59.7282 H       1  ZINC000474251633    0.0700
     46 H46         1.1935    1.7121   61.6278 H       1  ZINC000474251633    0.0700
     47 H47         1.4610    0.2770   60.5982 H       1  ZINC000474251633    0.0800
     48 H48         0.4479    1.1705   63.3878 H       1  ZINC000474251633    0.1700
     49 H49        -1.2572    2.1518   65.1262 H       1  ZINC000474251633    0.1500
@<TRIPOS>BOND
     1     1     2    2
     2     2     3    1
     3     2    17   am
     4     3     4    1
     5     3    29    1
     6     3    30    1
     7     4     5   am
     8     4    31    1
     9     5     6    2
    10     5     7    1
    11     7    16    1
    12     7     8    2
    13     8     9    1
    14     8    10    1
    15    10    15   ar
    16    10    11   ar
    17    11    12   ar
    18    11    32    1
    19    12    13   ar
    20    12    33    1
    21    13    14   ar
    22    13    34    1
    23    14    15   ar
    24    14    35    1
    25    15    16    1
    26    17    18    1
    27    17    36    1
    28    18    19    1
    29    18    37    1
    30    18    38    1
    31    19    28    1
    32    19    20    2
    33    20    21    1
    34    21    22    1
    35    21    27    1
    36    22    26    1
    37    22    23    1
    38    22    39    1
    39    23    24    1
    40    23    40    1
    41    23    41    1
    42    24    25    1
    43    24    42    1
    44    24    43    1
    45    25    26    1
    46    25    44    1
    47    25    45    1
    48    26    46    1
    49    26    47    1
    50    27    28    2
    51    27    48    1
    52    28    49    1
@<TRIPOS>SUBSTRUCTURE
     1 ZINC000474251633        1 TEMP              0 ****  ****    0 ROOT


##########                                Name:     oleObject52.pdb
##########                DOCK_Rotatable_Bonds:                  10
##########                         Heavy_Atoms:                  38
##########                    Molecular_Weight:              533.07
##########                DOCK_Rotatable_Bonds:                  10
##########                       Formal_Charge:         0.000300027
##########                     HBond_Acceptors:                   8
##########                        HBond_Donors:                   0
##########                         Heavy_Atoms:                  38
##########                          Grid_Score:          -38.040604
##########                     Grid_vdw_energy:          -36.724075
##########                      Grid_es_energy:           -1.316530
##########           Internal_energy_repulsive:           26.084974

@<TRIPOS>MOLECULE
oleObject52.pdb
 71 74 1 0 0
SMALL
NO_CHARGES


@<TRIPOS>ATOM
      1 C          -6.6496    0.3200   52.7803 C.ar    1  UNL        -0.0596
      2 C          -6.9689    1.3442   53.6843 C.ar    1  UNL        -0.0314
      3 C          -8.2798    1.8637   53.7403 C.ar    1  UNL         0.0800
      4 C          -9.2790    1.3473   52.8829 C.ar    1  UNL         0.0089
      5 C          -8.9409    0.3210   51.9747 C.ar    1  UNL        -0.0541
      6 C          -7.6354   -0.1903   51.9248 C.ar    1  UNL        -0.0617
      7 C         -10.7027    1.9214   52.9461 C.3     1  UNL         0.0953
      8 C         -11.4590    1.7649   51.6152 C.ar    1  UNL         0.0684
      9 C         -11.0440    2.4321   50.4352 C.ar    1  UNL        -0.0272
     10 C         -11.7825    2.2273   49.2546 C.ar    1  UNL        -0.0559
     11 C         -12.8955    1.3749   49.2834 C.ar    1  UNL        -0.0435
     12 C         -13.2335    0.7517   50.4937 C.ar    1  UNL         0.0272
     13 N         -12.5339    0.9410   51.6279 N.ar    1  UNL        -0.2587
     14 C          -9.8235    3.3439   50.4020 C.3     1  UNL        -0.0379
     15 N         -11.4789    1.5026   54.1481 N.am    1  UNL        -0.2917
     16 C         -11.5636    0.1502   54.4965 C.2     1  UNL         0.2180
     17 O         -10.8081   -0.6643   53.9929 O.2     1  UNL        -0.2772
     18 C         -12.3881   -0.2095   55.7590 C.3     1  UNL         0.0385
     19 C         -11.6855    0.2454   57.0611 C.3     1  UNL        -0.0289
     20 C         -10.4776   -0.6497   57.4123 C.3     1  UNL        -0.0010
     21 N         -10.8710   -2.0732   57.5282 N.4     1  UNL        -0.3010
     22 C         -11.5246   -2.5903   56.3059 C.3     1  UNL        -0.0010
     23 C         -12.7249   -1.7211   55.8567 C.3     1  UNL        -0.0289
     24 C          -9.7836   -2.9707   57.9779 C.3     1  UNL         0.0222
     25 C          -9.3491   -2.7264   59.4378 C.3     1  UNL         0.0661
     26 O         -10.5277   -2.4083   60.1992 O.3     1  UNL        -0.3432
     27 C         -10.5151   -1.6238   61.3362 C.ar    1  UNL         0.0937
     28 C          -9.3132   -1.1692   61.9185 C.ar    1  UNL        -0.0289
     29 C          -9.3448   -0.3728   63.0754 C.ar    1  UNL        -0.0417
     30 C         -10.5738   -0.0231   63.6610 C.ar    1  UNL         0.0537
     31 C         -11.7732   -0.4735   63.0839 C.ar    1  UNL        -0.0230
     32 C         -11.7447   -1.2700   61.9270 C.ar    1  UNL         0.0721
     33 CL        -13.2627   -1.8126   61.2368 Cl      1  UNL        -0.0814
     34 C         -10.6035    0.7901   64.8425 C.1     1  UNL         0.0992
     35 N         -10.6167    1.4449   65.7956 N.1     1  UNL        -0.1924
     36 C         -12.1686    2.5681   54.9076 C.3     1  UNL         0.0037
     37 O          -8.6173    2.8803   54.6175 O.3     1  UNL        -0.3490
     38 C          -7.6853    3.4975   55.5214 C.3     1  UNL         0.0422
     39 H          -5.6387   -0.0755   52.7419 H       1  UNL         0.0624
     40 H          -6.1890    1.7258   54.3346 H       1  UNL         0.0651
     41 H          -9.6857   -0.0876   51.3004 H       1  UNL         0.0627
     42 H          -7.3889   -0.9814   51.2224 H       1  UNL         0.0623
     43 H         -10.5529    2.9996   53.0706 H       1  UNL         0.0627
     44 H         -11.4960    2.7162   48.3279 H       1  UNL         0.0627
     45 H         -13.4814    1.1968   48.3865 H       1  UNL         0.0639
     46 H         -14.0876    0.0788   50.5576 H       1  UNL         0.0840
     47 H          -9.8683    4.0945   51.1982 H       1  UNL         0.0280
     48 H          -9.7451    3.8822   49.4494 H       1  UNL         0.0280
     49 H          -8.9000    2.7659   50.5324 H       1  UNL         0.0280
     50 H         -13.3485    0.3121   55.6909 H       1  UNL         0.0402
     51 H         -12.4055    0.2019   57.8885 H       1  UNL         0.0288
     52 H         -11.3657    1.2910   56.9845 H       1  UNL         0.0288
     53 H         -10.0552   -0.2873   58.3566 H       1  UNL         0.0431
     54 H          -9.7076   -0.5408   56.6369 H       1  UNL         0.0431
     55 H         -11.8840   -3.6123   56.4819 H       1  UNL         0.0431
     56 H         -10.7890   -2.6425   55.4934 H       1  UNL         0.0431
     57 H         -13.5342   -1.8524   56.5867 H       1  UNL         0.0288
     58 H         -13.1110   -2.0854   54.8960 H       1  UNL         0.0288
     59 H          -8.9112   -2.8590   57.3207 H       1  UNL         0.0455
     60 H         -10.1221   -4.0123   57.9016 H       1  UNL         0.0455
     61 H          -8.6377   -1.8913   59.4715 H       1  UNL         0.0586
     62 H          -8.8710   -3.6247   59.8466 H       1  UNL         0.0586
     63 H          -8.3514   -1.4247   61.4856 H       1  UNL         0.0651
     64 H          -8.4126   -0.0280   63.5155 H       1  UNL         0.0638
     65 H         -12.7276   -0.2073   63.5307 H       1  UNL         0.0653
     66 H         -12.4158    3.4129   54.2546 H       1  UNL         0.0433
     67 H         -11.5256    2.9237   55.7221 H       1  UNL         0.0433
     68 H         -13.1120    2.1939   55.3218 H       1  UNL         0.0433
     69 H          -8.1929    4.2782   56.1011 H       1  UNL         0.0535
     70 H          -6.8598    3.9592   54.9649 H       1  UNL         0.0535
     71 H          -7.2791    2.7553   56.2200 H       1  UNL         0.0535
@<TRIPOS>BOND
     1     1     2   ar
     2     1     6   ar
     3     1    39    1
     4     2     3   ar
     5     2    40    1
     6     3     4   ar
     7     3    37    1
     8     4     5   ar
     9     4     7    1
    10     5     6   ar
    11     5    41    1
    12     6    42    1
    13     7     8    1
    14     7    15    1
    15     7    43    1
    16     8     9   ar
    17     8    13   ar
    18     9    10   ar
    19     9    14    1
    20    10    11   ar
    21    10    44    1
    22    11    12   ar
    23    11    45    1
    24    12    13   ar
    25    12    46    1
    26    14    47    1
    27    14    48    1
    28    14    49    1
    29    15    16   am
    30    15    36    1
    31    16    17    2
    32    16    18    1
    33    18    19    1
    34    18    23    1
    35    18    50    1
    36    19    20    1
    37    19    51    1
    38    19    52    1
    39    20    21    1
    40    20    53    1
    41    20    54    1
    42    21    22    1
    43    21    24    1
    44    22    23    1
    45    22    55    1
    46    22    56    1
    47    23    57    1
    48    23    58    1
    49    24    25    1
    50    24    59    1
    51    24    60    1
    52    25    26    1
    53    25    61    1
    54    25    62    1
    55    26    27    1
    56    27    28   ar
    57    27    32   ar
    58    28    29   ar
    59    28    63    1
    60    29    30   ar
    61    29    64    1
    62    30    31   ar
    63    30    34    1
    64    31    32   ar
    65    31    65    1
    66    32    33    1
    67    34    35    3
    68    36    66    1
    69    36    67    1
    70    36    68    1
    71    37    38    1
    72    38    69    1
    73    38    70    1
    74    38    71    1
@<TRIPOS>SUBSTRUCTURE
     1 UNL         1 TEMP              0 ****  ****    0 ROOT


##########                                Name:    ZINC000546142192
##########                DOCK_Rotatable_Bonds:                  12
##########                         Heavy_Atoms:                  31
##########                    Molecular_Weight:             420.511
##########                DOCK_Rotatable_Bonds:                  12
##########                       Formal_Charge:          -0.0599997
##########                     HBond_Acceptors:                   7
##########                        HBond_Donors:                   2
##########                         Heavy_Atoms:                  31
##########                          Grid_Score:          -37.988079
##########                     Grid_vdw_energy:          -38.520805
##########                      Grid_es_energy:            0.532727
##########           Internal_energy_repulsive:           12.705374

@<TRIPOS>MOLECULE
ZINC000546142192
 59 61 1 0 0
SMALL
USER_CHARGES


@<TRIPOS>ATOM
      1 C1          1.8946    0.5996   42.4818 C.3     1  ZINC000546142192    0.0300
      2 O2          0.9069    0.5759   43.5460 O.3     1  ZINC000546142192   -0.3600
      3 C3          0.5153    1.7607   44.0405 C.2     1  ZINC000546142192    0.4600
      4 O4          0.9482    2.7853   43.5683 O.2     1  ZINC000546142192   -0.5100
      5 C5         -0.4643    1.8131   45.1845 C.3     1  ZINC000546142192   -0.0800
      6 H6         -0.9034    2.8090   45.2415 H       1  ZINC000546142192    0.1100
      7 C7         -1.5700    0.7804   44.9567 C.3     1  ZINC000546142192   -0.1500
      8 C8          0.2635    1.5009   46.4936 C.3     1  ZINC000546142192   -0.0600
      9 C9         -0.5375    2.0347   47.6533 C.ar    1  ZINC000546142192   -0.1000
     10 C10        -0.5014    3.3839   47.9538 C.ar    1  ZINC000546142192   -0.0900
     11 C11        -1.2347    3.8763   49.0156 C.ar    1  ZINC000546142192   -0.1200
     12 C12        -2.0088    3.0147   49.7816 C.ar    1  ZINC000546142192    0.1600
     13 N13        -2.7534    3.5105   50.8579 N.am    1  ZINC000546142192   -0.6900
     14 C14        -2.1636    3.7000   52.0548 C.2     1  ZINC000546142192    0.7100
     15 O15        -0.9846    3.4404   52.1994 O.2     1  ZINC000546142192   -0.5700
     16 N16        -2.8806    4.1775   53.0914 N.am    1  ZINC000546142192   -0.7400
     17 C17        -2.2398    4.3820   54.3928 C.3     1  ZINC000546142192    0.2300
     18 C18        -3.2618    4.2146   55.4877 C.2     1  ZINC000546142192    0.1800
     19 N19        -4.5345    4.4849   55.3878 N.2     1  ZINC000546142192   -0.4700
     20 C20        -5.1370    4.2150   56.5553 C.2     1  ZINC000546142192   -0.0300
     21 C21        -4.2021    3.7601   57.4113 C.2     1  ZINC000546142192   -0.0400
     22 N22        -3.0132    3.7547   56.7328 N.pl3   1  ZINC000546142192   -0.4500
     23 C23        -1.7125    3.3361   57.2614 C.3     1  ZINC000546142192    0.1100
     24 C24        -1.9022    2.1364   58.1916 C.3     1  ZINC000546142192   -0.0900
     25 C25        -0.6014    1.8307   58.8887 C.ar    1  ZINC000546142192   -0.0900
     26 C26        -0.5987    1.4893   60.2282 C.ar    1  ZINC000546142192   -0.1100
     27 C27         0.5945    1.2088   60.8675 C.ar    1  ZINC000546142192   -0.1200
     28 C28         1.7847    1.2694   60.1670 C.ar    1  ZINC000546142192   -0.1200
     29 C29         1.7818    1.6098   58.8273 C.ar    1  ZINC000546142192   -0.1200
     30 C30         0.5883    1.8861   58.1870 C.ar    1  ZINC000546142192   -0.1100
     31 C31        -2.0430    1.6603   49.4771 C.ar    1  ZINC000546142192   -0.1500
     32 C32        -1.3115    1.1750   48.4109 C.ar    1  ZINC000546142192   -0.0900
     33 H33         2.8036    1.0822   42.8405 H       1  ZINC000546142192    0.0600
     34 H34         2.1220   -0.4211   42.1744 H       1  ZINC000546142192    0.1000
     35 H35         1.4992    1.1556   41.6316 H       1  ZINC000546142192    0.0600
     36 H36        -1.1308   -0.2156   44.8998 H       1  ZINC000546142192    0.0600
     37 H37        -2.2784    0.8183   45.7843 H       1  ZINC000546142192    0.0800
     38 H38        -2.0884    1.0028   44.0242 H       1  ZINC000546142192    0.0700
     39 H39         0.3781    0.4219   46.5972 H       1  ZINC000546142192    0.0800
     40 H40         1.2467    1.9715   46.4840 H       1  ZINC000546142192    0.0800
     41 H41         0.1012    4.0534   47.3579 H       1  ZINC000546142192    0.1300
     42 H42        -1.2058    4.9301   49.2500 H       1  ZINC000546142192    0.1400
     43 H43        -3.6940    3.7175   50.7424 H       1  ZINC000546142192    0.4100
     44 H44        -3.8208    4.3858   52.9756 H       1  ZINC000546142192    0.4000
     45 H45        -1.4431    3.6498   54.5246 H       1  ZINC000546142192    0.0800
     46 H46        -1.8207    5.3871   54.4375 H       1  ZINC000546142192    0.1000
     47 H47        -6.1878    4.3404   56.7713 H       1  ZINC000546142192    0.1700
     48 H48        -4.3605    3.4545   58.4348 H       1  ZINC000546142192    0.1800
     49 H49        -1.0580    3.0561   56.4359 H       1  ZINC000546142192    0.1000
     50 H50        -1.2642    4.1596   57.8172 H       1  ZINC000546142192    0.0900
     51 H51        -2.6661    2.3691   58.9336 H       1  ZINC000546142192    0.0800
     52 H52        -2.2142    1.2701   57.6083 H       1  ZINC000546142192    0.0800
     53 H53        -1.5285    1.4420   60.7753 H       1  ZINC000546142192    0.1200
     54 H54         0.5967    0.9427   61.9142 H       1  ZINC000546142192    0.1200
     55 H55         2.7170    1.0509   60.6667 H       1  ZINC000546142192    0.1200
     56 H56         2.7118    1.6575   58.2803 H       1  ZINC000546142192    0.1200
     57 H57         0.5860    2.1522   57.1403 H       1  ZINC000546142192    0.1200
     58 H58        -2.6442    0.9877   50.0711 H       1  ZINC000546142192    0.1300
     59 H59        -1.3380    0.1217   48.1733 H       1  ZINC000546142192    0.1300
@<TRIPOS>BOND
     1     1     2    1
     2     1    33    1
     3     1    34    1
     4     1    35    1
     5     2     3    1
     6     3     4    2
     7     3     5    1
     8     5     6    1
     9     5     7    1
    10     5     8    1
    11     7    36    1
    12     7    37    1
    13     7    38    1
    14     8     9    1
    15     8    39    1
    16     8    40    1
    17     9    32   ar
    18     9    10   ar
    19    10    11   ar
    20    10    41    1
    21    11    12   ar
    22    11    42    1
    23    12    13    1
    24    12    31   ar
    25    13    14   am
    26    13    43    1
    27    14    15    2
    28    14    16   am
    29    16    17    1
    30    16    44    1
    31    17    18    1
    32    17    45    1
    33    17    46    1
    34    18    22    1
    35    18    19    2
    36    19    20    1
    37    20    21    2
    38    20    47    1
    39    21    22    1
    40    21    48    1
    41    22    23    1
    42    23    24    1
    43    23    49    1
    44    23    50    1
    45    24    25    1
    46    24    51    1
    47    24    52    1
    48    25    30   ar
    49    25    26   ar
    50    26    27   ar
    51    26    53    1
    52    27    28   ar
    53    27    54    1
    54    28    29   ar
    55    28    55    1
    56    29    30   ar
    57    29    56    1
    58    30    57    1
    59    31    32   ar
    60    31    58    1
    61    32    59    1
@<TRIPOS>SUBSTRUCTURE
     1 ZINC000546142192        1 TEMP              0 ****  ****    0 ROOT


##########                                Name:    ZINC001362587626
##########                DOCK_Rotatable_Bonds:                   9
##########                         Heavy_Atoms:                  25
##########                    Molecular_Weight:             346.346
##########                DOCK_Rotatable_Bonds:                   9
##########                       Formal_Charge:        -4.02331e-07
##########                     HBond_Acceptors:                  10
##########                        HBond_Donors:                   2
##########                         Heavy_Atoms:                  25
##########                          Grid_Score:          -37.890484
##########                     Grid_vdw_energy:          -28.621235
##########                      Grid_es_energy:           -9.269248
##########           Internal_energy_repulsive:           11.955284

@<TRIPOS>MOLECULE
ZINC001362587626
 43 45 1 0 0
SMALL
USER_CHARGES


@<TRIPOS>ATOM
      1 C1         -8.6000    1.0758   66.8561 C.3     1  ZINC001362587626   -0.1600
      2 C2         -7.7139    0.3854   65.8173 C.3     1  ZINC001362587626    0.1300
      3 H3         -7.0220   -0.2897   66.3210 H       1  ZINC001362587626    0.1200
      4 N4         -6.9565    1.3949   65.0732 N.am    1  ZINC001362587626   -0.7100
      5 C5         -5.8188    1.9001   65.5899 C.2     1  ZINC001362587626    0.5100
      6 O6         -5.4212    1.5179   66.6700 O.2     1  ZINC001362587626   -0.5000
      7 C7         -5.0406    2.9399   64.8253 C.3     1  ZINC001362587626    0.1000
      8 N8         -3.6295    2.5504   64.7696 N.pl3   1  ZINC001362587626   -0.3100
      9 C9         -2.7665    2.8132   63.7706 C.2     1  ZINC001362587626    0.1600
     10 N10        -1.6162    2.2909   64.1199 N.2     1  ZINC001362587626   -0.3000
     11 N11        -1.7650    1.7363   65.2733 N.2     1  ZINC001362587626   -0.0700
     12 N12        -2.9789    1.8961   65.6713 N.2     1  ZINC001362587626   -0.0700
     13 C13        -8.5766   -0.3995   64.8632 C.2     1  ZINC001362587626    0.5100
     14 O14        -9.0213   -1.4782   65.1950 O.2     1  ZINC001362587626   -0.5200
     15 N15        -8.8543    0.0969   63.6413 N.am    1  ZINC001362587626   -0.6600
     16 C16        -9.6564   -0.6330   62.7544 C.ar    1  ZINC001362587626    0.1000
     17 C17       -11.0386   -0.6050   62.8843 C.ar    1  ZINC001362587626   -0.1000
     18 C18       -11.8286   -1.3242   62.0095 C.ar    1  ZINC001362587626   -0.1900
     19 C19       -11.2418   -2.0750   61.0013 C.ar    1  ZINC001362587626    0.1200
     20 O20       -12.0203   -2.7833   60.1405 O.3     1  ZINC001362587626   -0.2800
     21 C21       -11.5108   -2.9848   58.8207 C.3     1  ZINC001362587626    0.0100
     22 C22       -10.8430   -4.3575   58.6148 C.3     1  ZINC001362587626    0.0200
     23 O23       -12.1466   -4.8012   58.1876 O.3     1  ZINC001362587626   -0.3700
     24 C24       -12.5686   -3.4743   57.8136 C.3     1  ZINC001362587626    0.0400
     25 C25        -9.8610   -2.1031   60.8706 C.ar    1  ZINC001362587626   -0.1300
     26 C26        -9.0700   -1.3800   61.7415 C.ar    1  ZINC001362587626   -0.0800
     27 H27        -9.2918    1.7509   66.3524 H       1  ZINC001362587626    0.0700
     28 H28        -9.1635    0.3247   67.4097 H       1  ZINC001362587626    0.0800
     29 H29        -7.9760    1.6435   67.5462 H       1  ZINC001362587626    0.0800
     30 H30        -7.2738    1.6997   64.2088 H       1  ZINC001362587626    0.4100
     31 H31        -5.4363    3.0179   63.8127 H       1  ZINC001362587626    0.1500
     32 H32        -5.1322    3.9034   65.3265 H       1  ZINC001362587626    0.1400
     33 H33        -2.9805    3.3497   62.8580 H       1  ZINC001362587626    0.2400
     34 H34        -8.4988    0.9595   63.3761 H       1  ZINC001362587626    0.4100
     35 H35       -11.4955   -0.0211   63.6695 H       1  ZINC001362587626    0.1300
     36 H36       -12.9037   -1.3026   62.1104 H       1  ZINC001362587626    0.1400
     37 H37       -10.9158   -2.1454   58.4611 H       1  ZINC001362587626    0.0900
     38 H38       -10.0924   -4.3686   57.8244 H       1  ZINC001362587626    0.1000
     39 H39       -10.4992   -4.8236   59.5382 H       1  ZINC001362587626    0.1000
     40 H40       -13.5934   -3.2400   58.1015 H       1  ZINC001362587626    0.1000
     41 H41       -12.3450   -3.2157   56.7786 H       1  ZINC001362587626    0.1000
     42 H42        -9.4048   -2.6877   60.0855 H       1  ZINC001362587626    0.1400
     43 H43        -7.9950   -1.4016   61.6394 H       1  ZINC001362587626    0.1500
@<TRIPOS>BOND
     1     1     2    1
     2     1    27    1
     3     1    28    1
     4     1    29    1
     5     2     3    1
     6     2     4    1
     7     2    13    1
     8     4     5   am
     9     4    30    1
    10     5     6    2
    11     5     7    1
    12     7     8    1
    13     7    31    1
    14     7    32    1
    15     8    12    1
    16     8     9    1
    17     9    10    2
    18     9    33    1
    19    10    11    1
    20    11    12    2
    21    13    14    2
    22    13    15   am
    23    15    16    1
    24    15    34    1
    25    16    26   ar
    26    16    17   ar
    27    17    18   ar
    28    17    35    1
    29    18    19   ar
    30    18    36    1
    31    19    20    1
    32    19    25   ar
    33    20    21    1
    34    21    24    1
    35    21    22    1
    36    21    37    1
    37    22    23    1
    38    22    38    1
    39    22    39    1
    40    23    24    1
    41    24    40    1
    42    24    41    1
    43    25    26   ar
    44    25    42    1
    45    26    43    1
@<TRIPOS>SUBSTRUCTURE
     1 ZINC001362587626        1 TEMP              0 ****  ****    0 ROOT


##########                                Name:    ZINC001596273020
##########                DOCK_Rotatable_Bonds:                  11
##########                         Heavy_Atoms:                  25
##########                    Molecular_Weight:             355.478
##########                DOCK_Rotatable_Bonds:                  11
##########                       Formal_Charge:          -0.0499996
##########                     HBond_Acceptors:                   7
##########                        HBond_Donors:                   2
##########                         Heavy_Atoms:                  25
##########                          Grid_Score:          -37.592411
##########                     Grid_vdw_energy:          -28.078674
##########                      Grid_es_energy:           -9.513736
##########           Internal_energy_repulsive:           20.885832

@<TRIPOS>MOLECULE
ZINC001596273020
 58 59 1 0 0
SMALL
USER_CHARGES


@<TRIPOS>ATOM
      1 C1        -11.5278    2.1071   63.1218 C.3     1  ZINC001596273020   -0.1900
      2 C2        -10.9849    0.6886   62.9371 C.3     1  ZINC001596273020   -0.0200
      3 N3         -9.6729    0.5778   63.5885 N.4     1  ZINC001596273020   -0.3900
      4 H4         -9.0341    1.2392   63.1730 H       1  ZINC001596273020    0.4300
      5 C5         -9.8120    0.8660   65.0222 C.3     1  ZINC001596273020   -0.0100
      6 C6         -8.4817    0.5963   65.7280 C.3     1  ZINC001596273020   -0.1900
      7 C7         -9.1515   -0.7840   63.4111 C.3     1  ZINC001596273020   -0.0100
      8 C8         -8.9574   -1.0656   61.9197 C.3     1  ZINC001596273020    0.0300
      9 O9         -9.9463   -1.9981   61.4785 O.3     1  ZINC001596273020   -0.3900
     10 C10        -9.7277   -2.4951   60.1566 C.3     1  ZINC001596273020    0.0500
     11 C11       -10.9318   -3.3325   59.7211 C.3     1  ZINC001596273020    0.1400
     12 N12       -12.1573   -2.7501   60.2734 N.am    1  ZINC001596273020   -0.7500
     13 C13       -12.8779   -1.8773   59.5417 C.2     1  ZINC001596273020    0.7200
     14 O14       -12.5100   -1.5722   58.4236 O.2     1  ZINC001596273020   -0.6000
     15 N15       -14.0062   -1.3427   60.0492 N.am    1  ZINC001596273020   -0.6300
     16 C16       -14.9286   -0.3799   59.3981 C.3     1  ZINC001596273020    0.1100
     17 C17       -16.3400   -0.9019   59.7938 C.3     1  ZINC001596273020   -0.0800
     18 H18       -17.0271   -0.0621   59.8974 H       1  ZINC001596273020    0.1200
     19 C19       -16.8152   -1.8176   58.6835 C.3     1  ZINC001596273020   -0.1000
     20 C20       -17.7492   -2.9128   59.1789 C.3     1  ZINC001596273020   -0.1200
     21 C21       -17.0001   -3.7341   60.2367 C.3     1  ZINC001596273020   -0.1200
     22 C22       -16.8032   -2.8425   61.4586 C.3     1  ZINC001596273020   -0.0800
     23 C23       -16.1221   -1.5529   61.1419 C.3     1  ZINC001596273020   -0.1400
     24 C24       -16.6374   -0.5593   62.1510 C.2     1  ZINC001596273020    0.5000
     25 O25       -17.0825   -0.9485   63.2174 O.co2   1  ZINC001596273020   -0.6900
     26 O26       -16.6095    0.6337   61.9012 O.co2   1  ZINC001596273020   -0.6900
     27 C27       -14.6089   -1.5891   61.3818 C.3     1  ZINC001596273020    0.1600
     28 H28       -11.7363    2.2817   64.1773 H       1  ZINC001596273020    0.0800
     29 H29       -10.7877    2.8275   62.7736 H       1  ZINC001596273020    0.0800
     30 H30       -12.4462    2.2224   62.5461 H       1  ZINC001596273020    0.1000
     31 H31       -11.6749   -0.0258   63.3861 H       1  ZINC001596273020    0.1300
     32 H32       -10.8816    0.4747   61.8733 H       1  ZINC001596273020    0.1300
     33 H33       -10.0898    1.9112   65.1575 H       1  ZINC001596273020    0.1300
     34 H34       -10.5854    0.2266   65.4480 H       1  ZINC001596273020    0.1300
     35 H35        -8.2585   -0.4699   65.6878 H       1  ZINC001596273020    0.0800
     36 H36        -7.6873    1.1529   65.2308 H       1  ZINC001596273020    0.0800
     37 H37        -8.5515    0.9139   66.7684 H       1  ZINC001596273020    0.1000
     38 H38        -8.1953   -0.8770   63.9259 H       1  ZINC001596273020    0.1400
     39 H39        -9.8594   -1.5011   63.8270 H       1  ZINC001596273020    0.1400
     40 H40        -9.0580   -0.1367   61.3585 H       1  ZINC001596273020    0.1000
     41 H41        -7.9645   -1.4839   61.7552 H       1  ZINC001596273020    0.0700
     42 H42        -9.6000   -1.6580   59.4703 H       1  ZINC001596273020    0.0700
     43 H43        -8.8310   -3.1146   60.1451 H       1  ZINC001596273020    0.0700
     44 H44       -10.9927   -3.3428   58.6329 H       1  ZINC001596273020    0.0900
     45 H45       -10.8168   -4.3525   60.0881 H       1  ZINC001596273020    0.0700
     46 H46       -12.4502   -2.9926   61.1658 H       1  ZINC001596273020    0.3900
     47 H47       -14.7692    0.6262   59.7859 H       1  ZINC001596273020    0.0700
     48 H48       -14.8020   -0.3994   58.3157 H       1  ZINC001596273020    0.0600
     49 H49       -17.3383   -1.2213   57.9359 H       1  ZINC001596273020    0.0500
     50 H50       -15.9472   -2.2815   58.2150 H       1  ZINC001596273020    0.0400
     51 H51       -18.6389   -2.4655   59.6220 H       1  ZINC001596273020    0.0700
     52 H52       -18.0353   -3.5568   58.3473 H       1  ZINC001596273020    0.0500
     53 H53       -17.5883   -4.6104   60.5093 H       1  ZINC001596273020    0.0600
     54 H54       -16.0313   -4.0449   59.8458 H       1  ZINC001596273020    0.0500
     55 H55       -17.7785   -2.6268   61.8952 H       1  ZINC001596273020    0.0600
     56 H56       -16.2057   -3.3826   62.1931 H       1  ZINC001596273020    0.0600
     57 H57       -14.3083   -2.5644   61.7645 H       1  ZINC001596273020    0.0700
     58 H58       -14.3152   -0.8010   62.0752 H       1  ZINC001596273020    0.0700
@<TRIPOS>BOND
     1     1     2    1
     2     1    28    1
     3     1    29    1
     4     1    30    1
     5     2     3    1
     6     2    31    1
     7     2    32    1
     8     3     4    1
     9     3     5    1
    10     3     7    1
    11     5     6    1
    12     5    33    1
    13     5    34    1
    14     6    35    1
    15     6    36    1
    16     6    37    1
    17     7     8    1
    18     7    38    1
    19     7    39    1
    20     8     9    1
    21     8    40    1
    22     8    41    1
    23     9    10    1
    24    10    11    1
    25    10    42    1
    26    10    43    1
    27    11    12    1
    28    11    44    1
    29    11    45    1
    30    12    13   am
    31    12    46    1
    32    13    14    2
    33    13    15   am
    34    15    27    1
    35    15    16    1
    36    16    17    1
    37    16    47    1
    38    16    48    1
    39    17    18    1
    40    17    23    1
    41    17    19    1
    42    19    20    1
    43    19    49    1
    44    19    50    1
    45    20    21    1
    46    20    51    1
    47    20    52    1
    48    21    22    1
    49    21    53    1
    50    21    54    1
    51    22    23    1
    52    22    55    1
    53    22    56    1
    54    23    24    1
    55    23    27    1
    56    24    25   ar
    57    24    26   ar
    58    27    57    1
    59    27    58    1
@<TRIPOS>SUBSTRUCTURE
     1 ZINC001596273020        1 TEMP              0 ****  ****    0 ROOT


##########                                Name:     oleObject42.pdb
##########                DOCK_Rotatable_Bonds:                   9
##########                         Heavy_Atoms:                  36
##########                    Molecular_Weight:             527.493
##########                DOCK_Rotatable_Bonds:                   9
##########                       Formal_Charge:         9.99384e-05
##########                     HBond_Acceptors:                   8
##########                        HBond_Donors:                   0
##########                         Heavy_Atoms:                  36
##########                          Grid_Score:          -36.879532
##########                     Grid_vdw_energy:          -35.738190
##########                      Grid_es_energy:           -1.141344
##########           Internal_energy_repulsive:           23.024593

@<TRIPOS>MOLECULE
oleObject42.pdb
 68 71 1 0 0
SMALL
NO_CHARGES


@<TRIPOS>ATOM
      1 C          -6.7577   -0.0349   52.1780 C.ar    1  UNL        -0.0435
      2 C          -6.6882    1.1316   52.9533 C.ar    1  UNL        -0.0559
      3 C          -7.8614    1.8753   53.1812 C.ar    1  UNL        -0.0272
      4 C          -9.0746    1.4118   52.6128 C.ar    1  UNL         0.0699
      5 N          -9.1275    0.2840   51.8662 N.ar    1  UNL        -0.2586
      6 C          -8.0004   -0.4207   51.6544 C.ar    1  UNL         0.0272
      7 C         -10.4009    2.1644   52.8152 C.3     1  UNL         0.1101
      8 C         -11.3997    1.9591   51.6596 C.ar    1  UNL         0.0699
      9 C         -11.2584    2.6521   50.4308 C.ar    1  UNL        -0.0272
     10 C         -12.2122    2.4265   49.4204 C.ar    1  UNL        -0.0559
     11 C         -13.2643    1.5312   49.6608 C.ar    1  UNL        -0.0435
     12 C         -13.3299    0.8908   50.9068 C.ar    1  UNL         0.0272
     13 N         -12.4236    1.1010   51.8795 N.ar    1  UNL        -0.2586
     14 C         -10.1134    3.6256   50.1732 C.3     1  UNL        -0.0379
     15 N         -10.9803    1.9568   54.1714 N.am    1  UNL        -0.2902
     16 C         -11.0573    0.7034   54.7802 C.2     1  UNL         0.2180
     17 O         -10.8909   -0.3109   54.1230 O.2     1  UNL        -0.2772
     18 C         -11.6860    0.6430   56.1939 C.3     1  UNL         0.0385
     19 C         -10.6329    0.9293   57.2914 C.3     1  UNL        -0.0289
     20 C          -9.6793   -0.2643   57.5124 C.3     1  UNL        -0.0010
     21 N         -10.4259   -1.5051   57.8127 N.4     1  UNL        -0.3010
     22 C         -11.4266   -1.8675   56.7846 C.3     1  UNL        -0.0010
     23 C         -12.4005   -0.7039   56.4798 C.3     1  UNL        -0.0289
     24 C          -9.5704   -2.6329   58.2440 C.3     1  UNL         0.0222
     25 C          -9.0613   -2.5159   59.6981 C.3     1  UNL         0.0661
     26 O         -10.2055   -2.5124   60.5661 O.3     1  UNL        -0.3432
     27 C         -10.3043   -1.5417   61.5323 C.ar    1  UNL         0.0937
     28 C          -9.1503   -1.1605   62.2374 C.ar    1  UNL        -0.0288
     29 C          -9.2283   -0.1714   63.2319 C.ar    1  UNL        -0.0408
     30 C         -10.4625    0.4337   63.5224 C.ar    1  UNL         0.0422
     31 C         -11.6191    0.0510   62.8228 C.ar    1  UNL        -0.0221
     32 C         -11.5432   -0.9380   61.8276 C.ar    1  UNL         0.0723
     33 CL        -13.0025   -1.4015   60.9722 Cl      1  UNL        -0.0814
     34 CL        -10.5599    1.6662   64.7620 Cl      1  UNL        -0.0843
     35 C         -11.6314    3.1266   54.7948 C.3     1  UNL         0.0038
     36 C          -7.7894    3.1421   54.0269 C.3     1  UNL        -0.0379
     37 H          -5.8684   -0.6284   51.9875 H       1  UNL         0.0639
     38 H          -5.7374    1.4504   53.3712 H       1  UNL         0.0627
     39 H          -8.0980   -1.3204   51.0481 H       1  UNL         0.0840
     40 H         -10.1347    3.2237   52.7733 H       1  UNL         0.0643
     41 H         -12.1398    2.9353   48.4633 H       1  UNL         0.0627
     42 H         -14.0132    1.3373   48.8987 H       1  UNL         0.0639
     43 H         -14.1307    0.1884   51.1343 H       1  UNL         0.0840
     44 H         -10.1646    4.4849   50.8532 H       1  UNL         0.0280
     45 H         -10.1398    4.0176   49.1488 H       1  UNL         0.0280
     46 H          -9.1397    3.1393   50.3093 H       1  UNL         0.0280
     47 H         -12.4594    1.4147   56.2625 H       1  UNL         0.0402
     48 H         -11.1506    1.1443   58.2352 H       1  UNL         0.0288
     49 H         -10.0519    1.8247   57.0406 H       1  UNL         0.0288
     50 H          -9.0034   -0.0257   58.3437 H       1  UNL         0.0431
     51 H          -9.0664   -0.4011   56.6123 H       1  UNL         0.0431
     52 H         -12.0105   -2.7325   57.1242 H       1  UNL         0.0431
     53 H         -10.9202   -2.1611   55.8576 H       1  UNL         0.0431
     54 H         -13.0577   -0.5716   57.3491 H       1  UNL         0.0288
     55 H         -13.0500   -0.9712   55.6363 H       1  UNL         0.0288
     56 H          -8.7032   -2.7065   57.5754 H       1  UNL         0.0455
     57 H         -10.1328   -3.5703   58.1466 H       1  UNL         0.0455
     58 H          -8.4925   -1.5866   59.8246 H       1  UNL         0.0586
     59 H          -8.4084   -3.3631   59.9414 H       1  UNL         0.0586
     60 H          -8.1978   -1.6313   62.0120 H       1  UNL         0.0652
     61 H          -8.3350    0.1236   63.7753 H       1  UNL         0.0639
     62 H         -12.5723    0.5189   63.0520 H       1  UNL         0.0655
     63 H         -11.1401    4.0554   54.4793 H       1  UNL         0.0433
     64 H         -11.5641    3.0549   55.8877 H       1  UNL         0.0433
     65 H         -12.6883    3.1601   54.5024 H       1  UNL         0.0433
     66 H          -6.7760    3.3143   54.4104 H       1  UNL         0.0280
     67 H          -8.4575    3.0798   54.8945 H       1  UNL         0.0280
     68 H          -8.0704    4.0254   53.4407 H       1  UNL         0.0280
@<TRIPOS>BOND
     1     1     2   ar
     2     1     6   ar
     3     1    37    1
     4     2     3   ar
     5     2    38    1
     6     3     4   ar
     7     3    36    1
     8     4     5   ar
     9     4     7    1
    10     5     6   ar
    11     6    39    1
    12     7     8    1
    13     7    15    1
    14     7    40    1
    15     8     9   ar
    16     8    13   ar
    17     9    10   ar
    18     9    14    1
    19    10    11   ar
    20    10    41    1
    21    11    12   ar
    22    11    42    1
    23    12    13   ar
    24    12    43    1
    25    14    44    1
    26    14    45    1
    27    14    46    1
    28    15    16   am
    29    15    35    1
    30    16    17    2
    31    16    18    1
    32    18    19    1
    33    18    23    1
    34    18    47    1
    35    19    20    1
    36    19    48    1
    37    19    49    1
    38    20    21    1
    39    20    50    1
    40    20    51    1
    41    21    22    1
    42    21    24    1
    43    22    23    1
    44    22    52    1
    45    22    53    1
    46    23    54    1
    47    23    55    1
    48    24    25    1
    49    24    56    1
    50    24    57    1
    51    25    26    1
    52    25    58    1
    53    25    59    1
    54    26    27    1
    55    27    28   ar
    56    27    32   ar
    57    28    29   ar
    58    28    60    1
    59    29    30   ar
    60    29    61    1
    61    30    31   ar
    62    30    34    1
    63    31    32   ar
    64    31    62    1
    65    32    33    1
    66    35    63    1
    67    35    64    1
    68    35    65    1
    69    36    66    1
    70    36    67    1
    71    36    68    1
@<TRIPOS>SUBSTRUCTURE
     1 UNL         1 TEMP              0 ****  ****    0 ROOT


##########                                Name:    ZINC000465642058
##########                DOCK_Rotatable_Bonds:                  10
##########                         Heavy_Atoms:                  31
##########                    Molecular_Weight:             420.511
##########                DOCK_Rotatable_Bonds:                  10
##########                       Formal_Charge:          1.2666e-07
##########                     HBond_Acceptors:                   7
##########                        HBond_Donors:                   2
##########                         Heavy_Atoms:                  31
##########                          Grid_Score:          -36.540371
##########                     Grid_vdw_energy:          -35.560497
##########                      Grid_es_energy:           -0.979874
##########           Internal_energy_repulsive:           12.837265

@<TRIPOS>MOLECULE
ZINC000465642058
 59 62 1 0 0
SMALL
USER_CHARGES


@<TRIPOS>ATOM
      1 C1        -10.3235    1.1204   59.1455 C.3     1  ZINC000465642058   -0.1500
      2 C2         -9.4612    1.4570   57.9272 C.3     1  ZINC000465642058    0.0500
      3 O3        -10.3049    1.7162   56.8034 O.3     1  ZINC000465642058   -0.3000
      4 C4         -9.9250    1.1848   55.6107 C.ar    1  ZINC000465642058    0.1200
      5 C5         -8.6940    1.5138   55.0610 C.ar    1  ZINC000465642058   -0.1600
      6 C6         -8.3135    0.9717   53.8533 C.ar    1  ZINC000465642058   -0.1300
      7 C7         -9.1449    0.0902   53.1752 C.ar    1  ZINC000465642058    0.0700
      8 C8        -10.3811   -0.2326   53.7295 C.ar    1  ZINC000465642058   -0.0700
      9 C9        -10.7633    0.3065   54.9400 C.ar    1  ZINC000465642058   -0.1100
     10 C10       -12.1030   -0.0505   55.5305 C.3     1  ZINC000465642058    0.1900
     11 N11       -12.0251   -1.3741   56.1535 N.am    1  ZINC000465642058   -0.7300
     12 C12       -13.1522   -2.0716   56.3972 C.2     1  ZINC000465642058    0.7100
     13 O13       -14.2339   -1.6017   56.1013 O.2     1  ZINC000465642058   -0.5900
     14 N14       -13.0804   -3.2900   56.9689 N.am    1  ZINC000465642058   -0.6200
     15 C15       -14.3058   -4.0474   57.2355 C.3     1  ZINC000465642058    0.1900
     16 C16       -14.6117   -4.9381   56.0589 C.2     1  ZINC000465642058    0.0500
     17 N17       -14.4100   -4.6429   54.8004 N.2     1  ZINC000465642058   -0.2700
     18 N18       -14.8239   -5.7327   54.0235 N.pl3   1  ZINC000465642058   -0.4700
     19 C19       -15.2798   -6.6892   54.8591 C.2     1  ZINC000465642058    0.0600
     20 C20       -15.1545   -6.2255   56.1242 C.2     1  ZINC000465642058   -0.2600
     21 C21       -11.7770   -3.8570   57.3239 C.3     1  ZINC000465642058    0.1700
     22 C22       -11.3240   -3.2873   58.6435 C.ar    1  ZINC000465642058   -0.1100
     23 C23        -9.9885   -2.9949   58.8481 C.ar    1  ZINC000465642058   -0.0900
     24 C24        -9.5730   -2.4723   60.0585 C.ar    1  ZINC000465642058   -0.1200
     25 C25       -10.4930   -2.2418   61.0642 C.ar    1  ZINC000465642058   -0.1200
     26 C26       -11.8286   -2.5334   60.8593 C.ar    1  ZINC000465642058   -0.1300
     27 C27       -12.2447   -3.0519   59.6474 C.ar    1  ZINC000465642058   -0.1100
     28 O28        -8.5677   -0.3411   52.0189 O.3     1  ZINC000465642058   -0.3000
     29 C29        -7.5168    0.5670   51.6474 C.3     1  ZINC000465642058    0.0800
     30 H30        -7.8998    1.3574   51.0019 H       1  ZINC000465642058    0.0900
     31 C31        -6.3708   -0.1811   50.9634 C.3     1  ZINC000465642058   -0.1500
     32 C32        -7.0647    1.1430   53.0100 C.3     1  ZINC000465642058   -0.1100
     33 H33       -10.9254    0.2371   58.9316 H       1  ZINC000465642058    0.0700
     34 H34        -9.6800    0.9228   60.0027 H       1  ZINC000465642058    0.0800
     35 H35       -10.9796    1.9615   59.3698 H       1  ZINC000465642058    0.0700
     36 H36        -8.8594    2.3404   58.1410 H       1  ZINC000465642058    0.0600
     37 H37        -8.8052    0.6160   57.7028 H       1  ZINC000465642058    0.0600
     38 H38        -8.0350    2.1946   55.5794 H       1  ZINC000465642058    0.1300
     39 H39       -11.0417   -0.9117   53.2110 H       1  ZINC000465642058    0.1400
     40 H40       -12.3774    0.6894   56.2824 H       1  ZINC000465642058    0.0700
     41 H41       -12.8556   -0.0637   54.7422 H       1  ZINC000465642058    0.0800
     42 H42       -11.1622   -1.7484   56.3907 H       1  ZINC000465642058    0.4000
     43 H43       -14.1685   -4.6583   58.1276 H       1  ZINC000465642058    0.1000
     44 H44       -15.1335   -3.3558   57.3924 H       1  ZINC000465642058    0.0900
     45 H45       -14.7891   -5.7896   53.0558 H       1  ZINC000465642058    0.4400
     46 H46       -15.6706   -7.6537   54.5702 H       1  ZINC000465642058    0.1800
     47 H47       -15.4309   -6.7537   57.0248 H       1  ZINC000465642058    0.1500
     48 H48       -11.8623   -4.9405   57.4060 H       1  ZINC000465642058    0.0900
     49 H49       -11.0496   -3.6073   56.5515 H       1  ZINC000465642058    0.0900
     50 H50        -9.2698   -3.1749   58.0624 H       1  ZINC000465642058    0.1300
     51 H51        -8.5295   -2.2445   60.2186 H       1  ZINC000465642058    0.1200
     52 H52       -10.1682   -1.8341   62.0101 H       1  ZINC000465642058    0.1200
     53 H53       -12.5474   -2.3536   61.6451 H       1  ZINC000465642058    0.1200
     54 H54       -13.2882   -3.2797   59.4872 H       1  ZINC000465642058    0.1200
     55 H55        -6.7377   -0.6528   50.0518 H       1  ZINC000465642058    0.0700
     56 H56        -5.5757    0.5217   50.7142 H       1  ZINC000465642058    0.0800
     57 H57        -5.9824   -0.9451   51.6369 H       1  ZINC000465642058    0.0700
     58 H58        -6.7977    2.1958   52.9186 H       1  ZINC000465642058    0.0900
     59 H59        -6.2354    0.5668   53.4206 H       1  ZINC000465642058    0.1000
@<TRIPOS>BOND
     1     1     2    1
     2     1    33    1
     3     1    34    1
     4     1    35    1
     5     2     3    1
     6     2    36    1
     7     2    37    1
     8     3     4    1
     9     4     9   ar
    10     4     5   ar
    11     5     6   ar
    12     5    38    1
    13     6    32    1
    14     6     7   ar
    15     7     8   ar
    16     7    28    1
    17     8     9   ar
    18     8    39    1
    19     9    10    1
    20    10    11    1
    21    10    40    1
    22    10    41    1
    23    11    12   am
    24    11    42    1
    25    12    13    2
    26    12    14   am
    27    14    15    1
    28    14    21    1
    29    15    16    1
    30    15    43    1
    31    15    44    1
    32    16    20    1
    33    16    17    2
    34    17    18    1
    35    18    19    1
    36    18    45    1
    37    19    20    2
    38    19    46    1
    39    20    47    1
    40    21    22    1
    41    21    48    1
    42    21    49    1
    43    22    27   ar
    44    22    23   ar
    45    23    24   ar
    46    23    50    1
    47    24    25   ar
    48    24    51    1
    49    25    26   ar
    50    25    52    1
    51    26    27   ar
    52    26    53    1
    53    27    54    1
    54    28    29    1
    55    29    30    1
    56    29    31    1
    57    29    32    1
    58    31    55    1
    59    31    56    1
    60    31    57    1
    61    32    58    1
    62    32    59    1
@<TRIPOS>SUBSTRUCTURE
     1 ZINC000465642058        1 TEMP              0 ****  ****    0 ROOT


##########                                Name:    ZINC001573443776
##########                DOCK_Rotatable_Bonds:                   8
##########                         Heavy_Atoms:                  28
##########                    Molecular_Weight:             386.457
##########                DOCK_Rotatable_Bonds:                   8
##########                       Formal_Charge:          0.00999954
##########                     HBond_Acceptors:                  10
##########                        HBond_Donors:                   3
##########                         Heavy_Atoms:                  28
##########                          Grid_Score:          -36.241135
##########                     Grid_vdw_energy:          -33.167324
##########                      Grid_es_energy:           -3.073811
##########           Internal_energy_repulsive:           37.886032

@<TRIPOS>MOLECULE
ZINC001573443776
 54 56 1 0 0
SMALL
USER_CHARGES


@<TRIPOS>ATOM
      1 C1         -7.1232    1.2665   52.7091 C.3     1  ZINC001573443776   -0.1800
      2 C2         -8.2613    0.2821   52.7910 C.2     1  ZINC001573443776    0.5100
      3 O3         -8.1797   -0.7876   52.2251 O.2     1  ZINC001573443776   -0.5400
      4 N4         -9.3696    0.5902   53.4931 N.am    1  ZINC001573443776   -0.6100
      5 C5         -9.4830    1.8820   54.1840 C.3     1  ZINC001573443776    0.1100
      6 C6         -9.8293    1.6261   55.6542 C.3     1  ZINC001573443776   -0.1300
      7 C7        -11.0869    0.7579   55.7344 C.3     1  ZINC001573443776   -0.1000
      8 C8        -10.8224   -0.5897   55.0589 C.3     1  ZINC001573443776   -0.1200
      9 H9         -9.9838   -1.0841   55.5492 H       1  ZINC001573443776    0.1000
     10 C10       -12.0505   -1.4564   55.1675 C.2     1  ZINC001573443776    0.5200
     11 O11       -13.1516   -0.9686   55.0242 O.2     1  ZINC001573443776   -0.5300
     12 N12       -11.9252   -2.7736   55.4238 N.am    1  ZINC001573443776   -0.7300
     13 C13       -13.1189   -3.6164   55.5276 C.3     1  ZINC001573443776    0.1100
     14 C14       -13.4908   -3.7948   57.0010 C.3     1  ZINC001573443776    0.1400
     15 H15       -13.7523   -2.8273   57.4293 H       1  ZINC001573443776    0.0900
     16 C16       -14.6865   -4.7427   57.1142 C.3     1  ZINC001573443776   -0.1700
     17 N17       -12.3504   -4.3584   57.7277 N.pl3   1  ZINC001573443776   -0.7200
     18 C18       -11.7335   -3.6218   58.7310 C.ar    1  ZINC001573443776    0.4300
     19 C19       -10.3523   -3.6959   58.8875 C.ar    1  ZINC001573443776   -0.2500
     20 C20        -9.7467   -2.9602   59.8872 C.ar    1  ZINC001573443776    0.0100
     21 C21       -10.5520   -2.1640   60.7085 C.ar    1  ZINC001573443776   -0.1400
     22 C22        -9.9488   -1.3544   61.7965 C.2     1  ZINC001573443776    0.2400
     23 N23        -9.8004   -0.0446   61.8137 N.2     1  ZINC001573443776   -0.3000
     24 N24        -9.2378    0.2739   62.9285 N.pl3   1  ZINC001573443776   -0.2300
     25 N25        -9.0251   -0.7921   63.6181 N.2     1  ZINC001573443776   -0.0500
     26 N26        -9.4541   -1.8122   62.9554 N.2     1  ZINC001573443776   -0.2700
     27 C27       -11.9264   -2.1410   60.4913 C.ar    1  ZINC001573443776    0.2300
     28 C28       -12.8057   -1.2877   61.3686 C.3     1  ZINC001573443776   -0.1200
     29 N29       -12.4664   -2.8538   59.5232 N.ar    1  ZINC001573443776   -0.5400
     30 C30       -10.4899   -0.3567   53.5773 C.3     1  ZINC001573443776    0.1200
     31 H31        -7.2231    1.8627   51.8020 H       1  ZINC001573443776    0.0900
     32 H32        -7.1468    1.9224   53.5793 H       1  ZINC001573443776    0.0800
     33 H33        -6.1767    0.7266   52.6866 H       1  ZINC001573443776    0.1000
     34 H34        -8.5347    2.4154   54.1194 H       1  ZINC001573443776    0.1000
     35 H35       -10.2711    2.4760   53.7211 H       1  ZINC001573443776    0.0700
     36 H36        -8.9999    1.1109   56.1389 H       1  ZINC001573443776    0.0700
     37 H37       -10.0107    2.5766   56.1560 H       1  ZINC001573443776    0.0800
     38 H38       -11.3496    0.5947   56.7797 H       1  ZINC001573443776    0.0800
     39 H39       -11.9096    1.2626   55.2280 H       1  ZINC001573443776    0.0700
     40 H40       -11.0446   -3.1636   55.5395 H       1  ZINC001573443776    0.4000
     41 H41       -13.9458   -3.1420   54.9990 H       1  ZINC001573443776    0.0900
     42 H42       -12.9154   -4.5910   55.0837 H       1  ZINC001573443776    0.0800
     43 H43       -15.5349   -4.3234   56.5734 H       1  ZINC001573443776    0.0700
     44 H44       -14.4249   -5.7103   56.6858 H       1  ZINC001573443776    0.0700
     45 H45       -14.9514   -4.8697   58.1637 H       1  ZINC001573443776    0.0700
     46 H46       -12.0260   -5.2458   57.5082 H       1  ZINC001573443776    0.4100
     47 H47        -9.7614   -4.3216   58.2351 H       1  ZINC001573443776    0.1400
     48 H48        -8.6771   -2.9989   60.0315 H       1  ZINC001573443776    0.1400
     49 H49        -9.0101    1.1755   63.2046 H       1  ZINC001573443776    0.4800
     50 H50       -12.9019   -0.2944   60.9303 H       1  ZINC001573443776    0.0800
     51 H51       -13.7914   -1.7458   61.4503 H       1  ZINC001573443776    0.0800
     52 H52       -12.3599   -1.2058   62.3599 H       1  ZINC001573443776    0.1100
     53 H53       -11.3614    0.0538   53.0673 H       1  ZINC001573443776    0.0800
     54 H54       -10.2040   -1.3011   53.1140 H       1  ZINC001573443776    0.0900
@<TRIPOS>BOND
     1     1     2    1
     2     1    31    1
     3     1    32    1
     4     1    33    1
     5     2     3    2
     6     2     4   am
     7     4    30    1
     8     4     5    1
     9     5     6    1
    10     5    34    1
    11     5    35    1
    12     6     7    1
    13     6    36    1
    14     6    37    1
    15     7     8    1
    16     7    38    1
    17     7    39    1
    18     8     9    1
    19     8    10    1
    20     8    30    1
    21    10    11    2
    22    10    12   am
    23    12    13    1
    24    12    40    1
    25    13    14    1
    26    13    41    1
    27    13    42    1
    28    14    15    1
    29    14    16    1
    30    14    17    1
    31    16    43    1
    32    16    44    1
    33    16    45    1
    34    17    18    1
    35    17    46    1
    36    18    29   ar
    37    18    19   ar
    38    19    20   ar
    39    19    47    1
    40    20    21   ar
    41    20    48    1
    42    21    22    1
    43    21    27   ar
    44    22    26    1
    45    22    23    2
    46    23    24    1
    47    24    25    1
    48    24    49    1
    49    25    26    2
    50    27    28    1
    51    27    29   ar
    52    28    50    1
    53    28    51    1
    54    28    52    1
    55    30    53    1
    56    30    54    1
@<TRIPOS>SUBSTRUCTURE
     1 ZINC001573443776        1 TEMP              0 ****  ****    0 ROOT


##########                                Name:    ZINC000770814339
##########                DOCK_Rotatable_Bonds:                  13
##########                         Heavy_Atoms:                  28
##########                    Molecular_Weight:             409.423
##########                DOCK_Rotatable_Bonds:                  13
##########                       Formal_Charge:          -0.0100008
##########                     HBond_Acceptors:                  12
##########                        HBond_Donors:                   4
##########                         Heavy_Atoms:                  28
##########                          Grid_Score:          -36.130859
##########                     Grid_vdw_energy:          -31.641891
##########                      Grid_es_energy:           -4.488967
##########           Internal_energy_repulsive:            5.851907

@<TRIPOS>MOLECULE
ZINC000770814339
 47 48 1 0 0
SMALL
USER_CHARGES


@<TRIPOS>ATOM
      1 C1        -16.5191   -8.5290   52.2263 C.3     1  ZINC000770814339   -0.1500
      2 C2        -16.4179   -7.1401   52.8601 C.3     1  ZINC000770814339    0.0600
      3 O3        -15.6476   -7.2233   54.0881 O.3     1  ZINC000770814339   -0.3500
      4 C4        -15.4638   -6.0823   54.7706 C.2     1  ZINC000770814339    0.4700
      5 O5        -15.9167   -5.0453   54.3471 O.2     1  ZINC000770814339   -0.4800
      6 C6        -14.6924   -6.0946   56.0651 C.3     1  ZINC000770814339    0.0700
      7 O7        -13.9347   -4.8884   56.1797 O.3     1  ZINC000770814339   -0.1800
      8 N8        -13.0122   -4.8875   57.2539 N.2     1  ZINC000770814339   -0.2800
      9 C9        -12.2245   -3.8654   57.4354 C.2     1  ZINC000770814339    0.1800
     10 C10       -11.2576   -3.8652   58.5586 C.2     1  ZINC000770814339    0.5900
     11 O11       -10.6920   -4.8933   58.8736 O.2     1  ZINC000770814339   -0.5100
     12 N12       -11.0060   -2.7244   59.2308 N.am    1  ZINC000770814339   -0.7000
     13 C13       -10.0490   -2.7238   60.3400 C.3     1  ZINC000770814339    0.1500
     14 C14       -10.3779   -1.5983   61.2866 C.ar    1  ZINC000770814339   -0.0600
     15 C15       -11.6966   -1.3029   61.5778 C.ar    1  ZINC000770814339   -0.1200
     16 C16       -11.9982   -0.2705   62.4462 C.ar    1  ZINC000770814339   -0.0200
     17 C17       -10.9811    0.4662   63.0238 C.ar    1  ZINC000770814339   -0.6700
     18 S18       -11.3657    1.7826   64.1302 S.o2    1  ZINC000770814339    2.7000
     19 N19        -9.9318    2.3512   64.7326 N.am    1  ZINC000770814339   -1.2500
     20 O20       -11.9101    2.8278   63.3364 O.2     1  ZINC000770814339   -0.9600
     21 O21       -12.0570    1.1973   65.2251 O.2     1  ZINC000770814339   -0.9600
     22 C22        -9.6624    0.1700   62.7338 C.ar    1  ZINC000770814339   -0.0200
     23 C23        -9.3607   -0.8649   61.8683 C.ar    1  ZINC000770814339   -0.1200
     24 C24       -12.2954   -2.7074   56.5222 C.2     1  ZINC000770814339    0.0600
     25 C25       -13.1278   -1.6159   56.6471 C.2     1  ZINC000770814339   -0.2000
     26 C26       -12.8698   -0.7620   55.5758 C.2     1  ZINC000770814339    0.0400
     27 N27       -11.9331   -1.2935   54.8316 N.2     1  ZINC000770814339   -0.2600
     28 N28       -11.5451   -2.5135   55.3991 N.pl3   1  ZINC000770814339   -0.4400
     29 H29       -17.0974   -8.4666   51.3045 H       1  ZINC000770814339    0.0800
     30 H30       -15.5189   -8.9004   52.0035 H       1  ZINC000770814339    0.0700
     31 H31       -17.0132   -9.2096   52.9198 H       1  ZINC000770814339    0.0700
     32 H32       -15.9238   -6.4595   52.1666 H       1  ZINC000770814339    0.0700
     33 H33       -17.4182   -6.7687   53.0830 H       1  ZINC000770814339    0.0700
     34 H34       -15.3874   -6.1679   56.9016 H       1  ZINC000770814339    0.1100
     35 H35       -14.0172   -6.9502   56.0777 H       1  ZINC000770814339    0.1100
     36 H36       -11.4585   -1.9038   58.9802 H       1  ZINC000770814339    0.4100
     37 H37       -10.1076   -3.6739   60.8709 H       1  ZINC000770814339    0.0900
     38 H38        -9.0404   -2.5872   59.9496 H       1  ZINC000770814339    0.0900
     39 H39       -12.4912   -1.8785   61.1264 H       1  ZINC000770814339    0.1400
     40 H40       -13.0285   -0.0394   62.6729 H       1  ZINC000770814339    0.1500
     41 H41        -9.2604    2.7085   64.1306 H       1  ZINC000770814339    0.4200
     42 H42        -9.7633    2.3270   65.6876 H       1  ZINC000770814339    0.4200
     43 H43        -8.8678    0.7454   63.1854 H       1  ZINC000770814339    0.1500
     44 H44        -8.3304   -1.0963   61.6418 H       1  ZINC000770814339    0.1400
     45 H45       -13.8501   -1.4518   57.4331 H       1  ZINC000770814339    0.1700
     46 H46       -13.3616    0.1815   55.3902 H       1  ZINC000770814339    0.1900
     47 H47       -10.8683   -3.1158   55.0526 H       1  ZINC000770814339    0.4500
@<TRIPOS>BOND
     1     1     2    1
     2     1    29    1
     3     1    30    1
     4     1    31    1
     5     2     3    1
     6     2    32    1
     7     2    33    1
     8     3     4    1
     9     4     5    2
    10     4     6    1
    11     6     7    1
    12     6    34    1
    13     6    35    1
    14     7     8    1
    15     8     9    2
    16     9    10    1
    17     9    24    1
    18    10    11    2
    19    10    12   am
    20    12    13    1
    21    12    36    1
    22    13    14    1
    23    13    37    1
    24    13    38    1
    25    14    23   ar
    26    14    15   ar
    27    15    16   ar
    28    15    39    1
    29    16    17   ar
    30    16    40    1
    31    17    18    1
    32    17    22   ar
    33    18    19   am
    34    18    20    2
    35    18    21    2
    36    19    41    1
    37    19    42    1
    38    22    23   ar
    39    22    43    1
    40    23    44    1
    41    24    28    1
    42    24    25    2
    43    25    26    1
    44    25    45    1
    45    26    27    2
    46    26    46    1
    47    27    28    1
    48    28    47    1
@<TRIPOS>SUBSTRUCTURE
     1 ZINC000770814339        1 TEMP              0 ****  ****    0 ROOT


##########                                Name:    ZINC000011620562
##########                DOCK_Rotatable_Bonds:                   9
##########                         Heavy_Atoms:                  29
##########                    Molecular_Weight:             417.448
##########                DOCK_Rotatable_Bonds:                   9
##########                       Formal_Charge:           0.0299999
##########                     HBond_Acceptors:                  12
##########                        HBond_Donors:                   1
##########                         Heavy_Atoms:                  29
##########                          Grid_Score:          -35.931892
##########                     Grid_vdw_energy:          -33.196545
##########                      Grid_es_energy:           -2.735346
##########           Internal_energy_repulsive:            7.775317

@<TRIPOS>MOLECULE
ZINC000011620562
 48 50 1 0 0
SMALL
USER_CHARGES


@<TRIPOS>ATOM
      1 C1         -7.4809   -0.0108   65.9344 C.3     1  ZINC000011620562    0.0400
      2 O2         -8.1385    0.3681   64.6966 O.3     1  ZINC000011620562   -0.3500
      3 C3         -9.1151   -0.4392   64.2535 C.2     1  ZINC000011620562    0.4600
      4 O4         -9.3878   -1.4473   64.8612 O.2     1  ZINC000011620562   -0.5000
      5 C5         -9.8714   -0.0882   62.9982 C.3     1  ZINC000011620562    0.1300
      6 N6         -9.2116   -0.7017   61.8430 N.am    1  ZINC000011620562   -0.7200
      7 C7         -9.6602   -1.8755   61.3555 C.2     1  ZINC000011620562    0.5400
      8 O8        -10.6110   -2.4230   61.8723 O.2     1  ZINC000011620562   -0.5200
      9 C9         -8.9804   -2.5075   60.1683 C.3     1  ZINC000011620562   -0.1600
     10 S10       -10.2286   -3.0329   58.9675 S.3     1  ZINC000011620562    0.1400
     11 C11       -10.4774   -1.5182   58.1023 C.2     1  ZINC000011620562    0.2100
     12 N12        -9.6204   -0.5245   58.0024 N.2     1  ZINC000011620562   -0.3400
     13 N13       -10.1175    0.4291   57.3006 N.2     1  ZINC000011620562   -0.0300
     14 N14       -11.3062    0.1239   56.9064 N.2     1  ZINC000011620562   -0.0800
     15 N15       -11.5854   -1.1590   57.4090 N.pl3   1  ZINC000011620562   -0.2600
     16 C16       -12.7656   -1.9073   57.2355 C.2     1  ZINC000011620562   -0.1300
     17 C17       -13.9501   -1.6769   57.8459 C.2     1  ZINC000011620562    0.2500
     18 C18       -14.2344   -0.5728   58.8313 C.3     1  ZINC000011620562   -0.1100
     19 N19       -14.8468   -2.6176   57.4159 N.pl3   1  ZINC000011620562   -0.3700
     20 C20       -16.2469   -2.7235   57.8341 C.3     1  ZINC000011620562    0.0900
     21 N21       -14.1955   -3.4612   56.5066 N.am    1  ZINC000011620562   -0.3600
     22 C22       -14.7650   -4.5507   55.8400 C.ar    1  ZINC000011620562    0.1400
     23 C23       -15.5889   -4.3412   54.7415 C.ar    1  ZINC000011620562   -0.1300
     24 C24       -16.1492   -5.4193   54.0851 C.ar    1  ZINC000011620562   -0.1000
     25 C25       -15.8909   -6.7062   54.5203 C.ar    1  ZINC000011620562   -0.1100
     26 C26       -15.0715   -6.9182   55.6139 C.ar    1  ZINC000011620562   -0.1000
     27 C27       -14.5034   -5.8447   56.2713 C.ar    1  ZINC000011620562   -0.1000
     28 C28       -12.9230   -3.0320   56.3848 C.2     1  ZINC000011620562    0.5500
     29 O29       -12.0625   -3.5249   55.6782 O.2     1  ZINC000011620562   -0.5000
     30 H30        -7.0192   -0.9910   65.8153 H       1  ZINC000011620562    0.0700
     31 H31        -6.7143    0.7247   66.1785 H       1  ZINC000011620562    0.1100
     32 H32        -8.2155   -0.0505   66.7387 H       1  ZINC000011620562    0.0700
     33 H33       -10.8930   -0.4608   63.0733 H       1  ZINC000011620562    0.1200
     34 H34        -9.8877    0.9947   62.8745 H       1  ZINC000011620562    0.1200
     35 H35        -8.4519   -0.2632   61.4289 H       1  ZINC000011620562    0.4200
     36 H36        -8.3119   -1.7825   59.7039 H       1  ZINC000011620562    0.1400
     37 H37        -8.4055   -3.3732   60.4972 H       1  ZINC000011620562    0.1400
     38 H38       -13.3327    0.0206   58.9823 H       1  ZINC000011620562    0.1000
     39 H39       -15.0284    0.0651   58.4432 H       1  ZINC000011620562    0.1000
     40 H40       -14.5479   -1.0057   59.7813 H       1  ZINC000011620562    0.1000
     41 H41       -16.4639   -1.9540   58.5751 H       1  ZINC000011620562    0.1100
     42 H42       -16.8958   -2.5880   56.9689 H       1  ZINC000011620562    0.0900
     43 H43       -16.4225   -3.7071   58.2697 H       1  ZINC000011620562    0.0900
     44 H44       -15.7912   -3.3363   54.4013 H       1  ZINC000011620562    0.1300
     45 H45       -16.7903   -5.2571   53.2311 H       1  ZINC000011620562    0.1300
     46 H46       -16.3304   -7.5476   54.0051 H       1  ZINC000011620562    0.1300
     47 H47       -14.8724   -7.9245   55.9516 H       1  ZINC000011620562    0.1400
     48 H48       -13.8633   -6.0110   57.1251 H       1  ZINC000011620562    0.1400
@<TRIPOS>BOND
     1     1     2    1
     2     1    30    1
     3     1    31    1
     4     1    32    1
     5     2     3    1
     6     3     4    2
     7     3     5    1
     8     5     6    1
     9     5    33    1
    10     5    34    1
    11     6     7   am
    12     6    35    1
    13     7     8    2
    14     7     9    1
    15     9    10    1
    16     9    36    1
    17     9    37    1
    18    10    11    1
    19    11    15    1
    20    11    12    2
    21    12    13    1
    22    13    14    2
    23    14    15    1
    24    15    16    1
    25    16    28    1
    26    16    17    2
    27    17    18    1
    28    17    19    1
    29    18    38    1
    30    18    39    1
    31    18    40    1
    32    19    20    1
    33    19    21    1
    34    20    41    1
    35    20    42    1
    36    20    43    1
    37    21    22    1
    38    21    28   am
    39    22    27   ar
    40    22    23   ar
    41    23    24   ar
    42    23    44    1
    43    24    25   ar
    44    24    45    1
    45    25    26   ar
    46    25    46    1
    47    26    27   ar
    48    26    47    1
    49    27    48    1
    50    28    29    2
@<TRIPOS>SUBSTRUCTURE
     1 ZINC000011620562        1 TEMP              0 ****  ****    0 ROOT


##########                                Name:    ZINC001591898574
##########                DOCK_Rotatable_Bonds:                  10
##########                         Heavy_Atoms:                  26
##########                    Molecular_Weight:             383.434
##########                DOCK_Rotatable_Bonds:                  10
##########                       Formal_Charge:         5.96046e-08
##########                     HBond_Acceptors:                  13
##########                        HBond_Donors:                   3
##########                         Heavy_Atoms:                  26
##########                          Grid_Score:          -35.714260
##########                     Grid_vdw_energy:          -31.399073
##########                      Grid_es_energy:           -4.315188
##########           Internal_energy_repulsive:           12.217017

@<TRIPOS>MOLECULE
ZINC001591898574
 47 48 1 0 0
SMALL
USER_CHARGES


@<TRIPOS>ATOM
      1 C1        -10.0536    4.2287   48.2767 C.3     1  ZINC001591898574   -0.1100
      2 C2        -10.9429    3.1390   48.8180 C.ar    1  ZINC001591898574    0.2300
      3 C3        -11.7771    2.4317   47.9706 C.ar    1  ZINC001591898574   -0.2400
      4 C4        -12.5843    1.4298   48.5149 C.ar    1  ZINC001591898574    0.3000
      5 C5        -13.4957    0.6427   47.6477 C.2     1  ZINC001591898574    0.2100
      6 N6        -13.3449    0.4017   46.3603 N.2     1  ZINC001591898574   -0.2500
      7 N7        -14.3435   -0.3153   45.9738 N.pl3   1  ZINC001591898574   -0.2200
      8 N8        -15.1220   -0.5365   46.9749 N.2     1  ZINC001591898574   -0.0400
      9 N9        -14.6297    0.0333   48.0222 N.2     1  ZINC001591898574   -0.2500
     10 N10       -12.5231    1.1916   49.8226 N.ar    1  ZINC001591898574   -0.5500
     11 C11       -11.7105    1.8921   50.5982 C.ar    1  ZINC001591898574    0.5800
     12 N12       -11.6711    1.6191   51.9545 N.pl3   1  ZINC001591898574   -0.7000
     13 C13       -10.3931    1.6457   52.6704 C.3     1  ZINC001591898574    0.1400
     14 C14        -9.7072    0.2843   52.5399 C.3     1  ZINC001591898574   -0.1500
     15 C15       -10.5426   -0.7784   53.2568 C.3     1  ZINC001591898574    0.1200
     16 N16       -10.4959   -0.5432   54.7020 N.am    1  ZINC001591898574   -0.7300
     17 C17       -11.5143   -0.9521   55.4845 C.2     1  ZINC001591898574    0.4900
     18 O18       -12.4686   -1.5161   54.9923 O.2     1  ZINC001591898574   -0.5300
     19 C19       -11.4671   -0.7086   56.9709 C.3     1  ZINC001591898574    0.1000
     20 N20       -10.8231   -1.8464   57.6319 N.am    1  ZINC001591898574   -0.9800
     21 C21       -11.1248   -3.2127   57.1977 C.3     1  ZINC001591898574    0.1000
     22 S22        -9.7541   -1.5881   58.8701 S.o2    1  ZINC001591898574    2.6100
     23 C23        -9.2249   -3.2510   59.3655 C.3     1  ZINC001591898574   -0.6600
     24 O24        -8.6797   -0.8828   58.2640 O.2     1  ZINC001591898574   -0.9500
     25 O25       -10.5394   -0.9896   59.8920 O.2     1  ZINC001591898574   -0.9600
     26 N26       -10.9302    2.8446   50.1084 N.ar    1  ZINC001591898574   -0.5600
     27 H27        -9.0949    3.8022   47.9816 H       1  ZINC001591898574    0.0900
     28 H28       -10.5287    4.6885   47.4101 H       1  ZINC001591898574    0.0900
     29 H29        -9.8940    4.9835   49.0467 H       1  ZINC001591898574    0.0900
     30 H30       -11.8040    2.6494   46.9131 H       1  ZINC001591898574    0.1600
     31 H31       -14.4862   -0.6379   45.0702 H       1  ZINC001591898574    0.4800
     32 H32       -12.4897    1.4101   52.4311 H       1  ZINC001591898574    0.4200
     33 H33        -9.7532    2.4175   52.2426 H       1  ZINC001591898574    0.0700
     34 H34       -10.5710    1.8636   53.7234 H       1  ZINC001591898574    0.0700
     35 H35        -9.6147    0.0235   51.4857 H       1  ZINC001591898574    0.0800
     36 H36        -8.7160    0.3322   52.9908 H       1  ZINC001591898574    0.0800
     37 H37       -11.5753   -0.7219   52.9126 H       1  ZINC001591898574    0.0700
     38 H38       -10.1397   -1.7670   53.0363 H       1  ZINC001591898574    0.0700
     39 H39        -9.7322   -0.0933   55.0958 H       1  ZINC001591898574    0.4000
     40 H40       -10.8976    0.1986   57.1726 H       1  ZINC001591898574    0.1200
     41 H41       -12.4815   -0.5932   57.3526 H       1  ZINC001591898574    0.1300
     42 H42       -10.4271   -3.5071   56.4137 H       1  ZINC001591898574    0.0600
     43 H43       -11.0283   -3.8925   58.0442 H       1  ZINC001591898574    0.0700
     44 H44       -12.1435   -3.2547   56.8122 H       1  ZINC001591898574    0.0700
     45 H45        -8.7538   -3.7497   58.5185 H       1  ZINC001591898574    0.1300
     46 H46        -8.5111   -3.1757   60.1859 H       1  ZINC001591898574    0.1200
     47 H47       -10.0918   -3.8266   59.6898 H       1  ZINC001591898574    0.1300
@<TRIPOS>BOND
     1     1     2    1
     2     1    27    1
     3     1    28    1
     4     1    29    1
     5     2    26   ar
     6     2     3   ar
     7     3     4   ar
     8     3    30    1
     9     4     5    1
    10     4    10   ar
    11     5     9    1
    12     5     6    2
    13     6     7    1
    14     7     8    1
    15     7    31    1
    16     8     9    2
    17    10    11   ar
    18    11    12    1
    19    11    26   ar
    20    12    13    1
    21    12    32    1
    22    13    14    1
    23    13    33    1
    24    13    34    1
    25    14    15    1
    26    14    35    1
    27    14    36    1
    28    15    16    1
    29    15    37    1
    30    15    38    1
    31    16    17   am
    32    16    39    1
    33    17    18    2
    34    17    19    1
    35    19    20    1
    36    19    40    1
    37    19    41    1
    38    20    21    1
    39    20    22   am
    40    21    42    1
    41    21    43    1
    42    21    44    1
    43    22    23    1
    44    22    24    2
    45    22    25    2
    46    23    45    1
    47    23    46    1
    48    23    47    1
@<TRIPOS>SUBSTRUCTURE
     1 ZINC001591898574        1 TEMP              0 ****  ****    0 ROOT


##########                                Name:    ZINC000185598309
##########                DOCK_Rotatable_Bonds:                  14
##########                         Heavy_Atoms:                  25
##########                    Molecular_Weight:             347.457
##########                DOCK_Rotatable_Bonds:                  14
##########                       Formal_Charge:               -0.02
##########                     HBond_Acceptors:                   6
##########                        HBond_Donors:                   4
##########                         Heavy_Atoms:                  25
##########                          Grid_Score:          -35.305779
##########                     Grid_vdw_energy:          -31.703720
##########                      Grid_es_energy:           -3.602059
##########           Internal_energy_repulsive:           11.051753

@<TRIPOS>MOLECULE
ZINC000185598309
 54 54 1 0 0
SMALL
USER_CHARGES


@<TRIPOS>ATOM
      1 C1        -14.2397    0.9937   65.3250 C.3     1  ZINC000185598309   -0.1300
      2 C2        -13.0902    0.7563   64.3800 C.2     1  ZINC000185598309   -0.1600
      3 C3        -12.0645    1.5712   64.3784 C.2     1  ZINC000185598309   -0.1600
      4 C4        -10.9157    1.3349   63.4321 C.3     1  ZINC000185598309   -0.0900
      5 C5        -10.2965   -0.0355   63.7138 C.3     1  ZINC000185598309    0.1700
      6 H6        -11.0875   -0.7801   63.8036 H       1  ZINC000185598309    0.1000
      7 C7         -9.5004    0.0232   65.0190 C.3     1  ZINC000185598309    0.0600
      8 O8         -9.1008   -1.2968   65.3930 O.3     1  ZINC000185598309   -0.5700
      9 N9         -9.4027   -0.4031   62.6128 N.am    1  ZINC000185598309   -0.7300
     10 C10        -9.7259   -1.4241   61.7945 C.2     1  ZINC000185598309    0.7000
     11 O11       -10.7601   -2.0391   61.9692 O.2     1  ZINC000185598309   -0.5900
     12 N12        -8.9028   -1.7632   60.7827 N.am    1  ZINC000185598309   -0.7400
     13 C13        -9.2533   -2.8743   59.8944 C.3     1  ZINC000185598309    0.1800
     14 C14       -10.1173   -2.3646   58.7695 C.ar    1  ZINC000185598309   -0.0900
     15 C15        -9.7501   -1.2246   58.0789 C.ar    1  ZINC000185598309   -0.1100
     16 C16       -10.5405   -0.7535   57.0464 C.ar    1  ZINC000185598309   -0.1000
     17 C17       -11.6992   -1.4210   56.7018 C.ar    1  ZINC000185598309   -0.1100
     18 C18       -12.0706   -2.5668   57.3935 C.ar    1  ZINC000185598309    0.1400
     19 N19       -13.2437   -3.2458   57.0466 N.am    1  ZINC000185598309   -0.6800
     20 C20       -13.2876   -3.9824   55.9187 C.2     1  ZINC000185598309    0.5200
     21 O21       -12.3102   -4.0566   55.2045 O.2     1  ZINC000185598309   -0.5200
     22 C22       -14.5512   -4.7138   55.5451 C.3     1  ZINC000185598309   -0.1100
     23 H23       -14.4230   -5.1866   54.5714 H       1  ZINC000185598309    0.1000
     24 C24       -15.7146   -3.7222   55.4812 C.3     1  ZINC000185598309   -0.1500
     25 C25       -14.8506   -5.7844   56.5965 C.3     1  ZINC000185598309   -0.1100
     26 C26       -15.1751   -7.1071   55.8993 C.3     1  ZINC000185598309   -0.1600
     27 C27       -11.2722   -3.0402   58.4262 C.ar    1  ZINC000185598309   -0.1300
     28 H28       -14.9934    0.2193   65.1822 H       1  ZINC000185598309    0.0600
     29 H29       -13.8775    0.9630   66.3526 H       1  ZINC000185598309    0.0600
     30 H30       -14.6797    1.9704   65.1238 H       1  ZINC000185598309    0.0600
     31 H31       -13.1119   -0.0857   63.7038 H       1  ZINC000185598309    0.1100
     32 H32       -12.0422    2.4124   65.0555 H       1  ZINC000185598309    0.1100
     33 H33       -11.2790    1.3654   62.4048 H       1  ZINC000185598309    0.0900
     34 H34       -10.1626    2.1101   63.5742 H       1  ZINC000185598309    0.0800
     35 H35        -8.6159    0.6442   64.8773 H       1  ZINC000185598309    0.0500
     36 H36       -10.1225    0.4509   65.8051 H       1  ZINC000185598309    0.0500
     37 H37        -8.5817   -1.7565   64.7188 H       1  ZINC000185598309    0.3800
     38 H38        -8.5782    0.0884   62.4727 H       1  ZINC000185598309    0.4000
     39 H39        -8.0782   -1.2718   60.6426 H       1  ZINC000185598309    0.4000
     40 H40        -8.3436   -3.3124   59.4839 H       1  ZINC000185598309    0.0700
     41 H41        -9.7992   -3.6313   60.4574 H       1  ZINC000185598309    0.0800
     42 H42        -8.8444   -0.7007   58.3463 H       1  ZINC000185598309    0.1300
     43 H43       -10.2514    0.1378   56.5091 H       1  ZINC000185598309    0.1300
     44 H44       -12.3161   -1.0524   55.8957 H       1  ZINC000185598309    0.1300
     45 H45       -14.0255   -3.1865   57.6178 H       1  ZINC000185598309    0.4100
     46 H46       -15.5012   -2.9595   54.7323 H       1  ZINC000185598309    0.0600
     47 H47       -16.6285   -4.2511   55.2111 H       1  ZINC000185598309    0.0800
     48 H48       -15.8427   -3.2494   56.4549 H       1  ZINC000185598309    0.0600
     49 H49       -13.9800   -5.9162   57.2389 H       1  ZINC000185598309    0.0700
     50 H50       -15.7034   -5.4727   57.1996 H       1  ZINC000185598309    0.0700
     51 H51       -16.0457   -6.9752   55.2568 H       1  ZINC000185598309    0.0600
     52 H52       -14.3223   -7.4187   55.2962 H       1  ZINC000185598309    0.0600
     53 H53       -15.3885   -7.8697   56.6483 H       1  ZINC000185598309    0.0600
     54 H54       -11.5582   -3.9309   58.9659 H       1  ZINC000185598309    0.1300
@<TRIPOS>BOND
     1     1     2    1
     2     1    28    1
     3     1    29    1
     4     1    30    1
     5     2     3    2
     6     2    31    1
     7     3     4    1
     8     3    32    1
     9     4     5    1
    10     4    33    1
    11     4    34    1
    12     5     6    1
    13     5     7    1
    14     5     9    1
    15     7     8    1
    16     7    35    1
    17     7    36    1
    18     8    37    1
    19     9    10   am
    20     9    38    1
    21    10    11    2
    22    10    12   am
    23    12    13    1
    24    12    39    1
    25    13    14    1
    26    13    40    1
    27    13    41    1
    28    14    27   ar
    29    14    15   ar
    30    15    16   ar
    31    15    42    1
    32    16    17   ar
    33    16    43    1
    34    17    18   ar
    35    17    44    1
    36    18    19    1
    37    18    27   ar
    38    19    20   am
    39    19    45    1
    40    20    21    2
    41    20    22    1
    42    22    23    1
    43    22    24    1
    44    22    25    1
    45    24    46    1
    46    24    47    1
    47    24    48    1
    48    25    26    1
    49    25    49    1
    50    25    50    1
    51    26    51    1
    52    26    52    1
    53    26    53    1
    54    27    54    1
@<TRIPOS>SUBSTRUCTURE
     1 ZINC000185598309        1 TEMP              0 ****  ****    0 ROOT


##########                                Name:    ZINC000599797189
##########                DOCK_Rotatable_Bonds:                  13
##########                         Heavy_Atoms:                  23
##########                    Molecular_Weight:             329.313
##########                DOCK_Rotatable_Bonds:                  13
##########                       Formal_Charge:          0.00999949
##########                     HBond_Acceptors:                  11
##########                        HBond_Donors:                   3
##########                         Heavy_Atoms:                  23
##########                          Grid_Score:          -35.130814
##########                     Grid_vdw_energy:          -34.262646
##########                      Grid_es_energy:           -0.868166
##########           Internal_energy_repulsive:            8.053708

@<TRIPOS>MOLECULE
ZINC000599797189
 42 42 1 0 0
SMALL
USER_CHARGES


@<TRIPOS>ATOM
      1 C1        -16.5691   -5.3398   52.3517 C.3     1  ZINC000599797189   -0.1500
      2 C2        -16.3298   -5.0076   53.8260 C.3     1  ZINC000599797189    0.0600
      3 O3        -15.1553   -5.7190   54.2979 O.3     1  ZINC000599797189   -0.3600
      4 C4        -15.3624   -6.8819   54.9353 C.2     1  ZINC000599797189    0.4500
      5 O5        -16.0175   -7.7505   54.4099 O.2     1  ZINC000599797189   -0.4800
      6 C6        -14.7779   -7.1041   56.3065 C.3     1  ZINC000599797189    0.1500
      7 N7        -14.3796   -5.8171   56.8820 N.pl3   1  ZINC000599797189   -0.3800
      8 C8        -15.1118   -5.0396   57.6975 C.2     1  ZINC000599797189    0.2800
      9 N9        -14.4062   -3.9776   57.9920 N.2     1  ZINC000599797189   -0.5100
     10 C10       -13.2181   -4.0410   57.3836 C.2     1  ZINC000599797189    0.4700
     11 N11       -12.2061   -3.0793   57.4711 N.am    1  ZINC000599797189   -0.6400
     12 C12       -11.2246   -3.2150   58.3848 C.2     1  ZINC000599797189    0.7100
     13 O13       -11.2197   -4.1724   59.1341 O.2     1  ZINC000599797189   -0.5300
     14 N14       -10.2487   -2.2892   58.4679 N.am    1  ZINC000599797189   -0.7300
     15 C15        -9.1809   -2.4375   59.4599 C.3     1  ZINC000599797189    0.1100
     16 C16        -9.2892   -1.3181   60.4971 C.3     1  ZINC000599797189    0.1100
     17 H17        -8.2966   -1.0786   60.8783 H       1  ZINC000599797189    0.1200
     18 O18        -9.8583   -0.1576   59.8877 O.3     1  ZINC000599797189   -0.5400
     19 C19       -10.1818   -1.7773   61.6519 C.3     1  ZINC000599797189   -0.1500
     20 C20       -10.0480   -0.8149   62.8037 C.2     1  ZINC000599797189    0.4600
     21 O21       -10.8240    0.1045   62.9160 O.2     1  ZINC000599797189   -0.4900
     22 O22        -9.0670   -0.9790   63.7049 O.3     1  ZINC000599797189   -0.3600
     23 C23        -9.0311   -0.0465   64.8174 C.3     1  ZINC000599797189    0.0400
     24 N24       -13.1550   -5.1556   56.6950 N.2     1  ZINC000599797189   -0.3200
     25 H25       -17.4509   -4.8058   51.9975 H       1  ZINC000599797189    0.0800
     26 H26       -15.7013   -5.0374   51.7657 H       1  ZINC000599797189    0.0700
     27 H27       -16.7258   -6.4129   52.2419 H       1  ZINC000599797189    0.0700
     28 H28       -16.1732   -3.9345   53.9358 H       1  ZINC000599797189    0.0700
     29 H29       -17.1977   -5.3100   54.4121 H       1  ZINC000599797189    0.0700
     30 H30       -15.5239   -7.5735   56.9477 H       1  ZINC000599797189    0.1500
     31 H31       -13.9055   -7.7529   56.2289 H       1  ZINC000599797189    0.1300
     32 H32       -16.1103   -5.2540   58.0488 H       1  ZINC000599797189    0.2300
     33 H33       -12.2106   -2.3148   56.8740 H       1  ZINC000599797189    0.4200
     34 H34       -10.2532   -1.5247   57.8708 H       1  ZINC000599797189    0.4000
     35 H35        -9.2775   -3.4033   59.9560 H       1  ZINC000599797189    0.0800
     36 H36        -8.2126   -2.3798   58.9628 H       1  ZINC000599797189    0.0800
     37 H37       -10.5059   -0.3536   59.1968 H       1  ZINC000599797189    0.3800
     38 H38       -11.2197   -1.8049   61.3201 H       1  ZINC000599797189    0.1200
     39 H39        -9.8765   -2.7732   61.9732 H       1  ZINC000599797189    0.1200
     40 H40        -8.9129    0.9682   64.4373 H       1  ZINC000599797189    0.0600
     41 H41        -9.9614   -0.1174   65.3811 H       1  ZINC000599797189    0.0600
     42 H42        -8.1921   -0.2905   65.4690 H       1  ZINC000599797189    0.1000
@<TRIPOS>BOND
     1     1     2    1
     2     1    25    1
     3     1    26    1
     4     1    27    1
     5     2     3    1
     6     2    28    1
     7     2    29    1
     8     3     4    1
     9     4     5    2
    10     4     6    1
    11     6     7    1
    12     6    30    1
    13     6    31    1
    14     7    24    1
    15     7     8    1
    16     8     9    2
    17     8    32    1
    18     9    10    1
    19    10    11    1
    20    10    24    2
    21    11    12   am
    22    11    33    1
    23    12    13    2
    24    12    14   am
    25    14    15    1
    26    14    34    1
    27    15    16    1
    28    15    35    1
    29    15    36    1
    30    16    17    1
    31    16    18    1
    32    16    19    1
    33    18    37    1
    34    19    20    1
    35    19    38    1
    36    19    39    1
    37    20    21    2
    38    20    22    1
    39    22    23    1
    40    23    40    1
    41    23    41    1
    42    23    42    1
@<TRIPOS>SUBSTRUCTURE
     1 ZINC000599797189        1 TEMP              0 ****  ****    0 ROOT


##########                                Name:    ZINC000269356812
##########                DOCK_Rotatable_Bonds:                  10
##########                         Heavy_Atoms:                  25
##########                    Molecular_Weight:             387.431
##########                DOCK_Rotatable_Bonds:                  10
##########                       Formal_Charge:          0.00999978
##########                     HBond_Acceptors:                  10
##########                        HBond_Donors:                   3
##########                         Heavy_Atoms:                  25
##########                          Grid_Score:          -34.826260
##########                     Grid_vdw_energy:          -24.773493
##########                      Grid_es_energy:          -10.052768
##########           Internal_energy_repulsive:            7.142354

@<TRIPOS>MOLECULE
ZINC000269356812
 40 41 1 0 0
SMALL
USER_CHARGES


@<TRIPOS>ATOM
      1 C1         -4.2926    1.7696   64.4310 C.3     1  ZINC000269356812   -0.1400
      2 C2         -4.9623    2.6961   65.4479 C.3     1  ZINC000269356812    0.2000
      3 O3         -5.6482    3.7433   64.7587 O.3     1  ZINC000269356812   -0.5400
      4 C4         -5.9623    1.8963   66.2852 C.3     1  ZINC000269356812    0.0900
      5 N5         -6.9778    1.3114   65.4061 N.am    1  ZINC000269356812   -0.6900
      6 C6         -7.6685    0.2246   65.8041 C.2     1  ZINC000269356812    0.5100
      7 O7         -7.4481   -0.2704   66.8901 O.2     1  ZINC000269356812   -0.5100
      8 C8         -8.7048   -0.3706   64.9088 C.2     1  ZINC000269356812    0.5100
      9 O9         -9.1616   -1.4680   65.1548 O.2     1  ZINC000269356812   -0.4900
     10 N10        -9.1328    0.3105   63.8274 N.am    1  ZINC000269356812   -0.6400
     11 C11       -10.1038   -0.2471   62.9885 C.ar    1  ZINC000269356812    0.0900
     12 C12        -9.7335   -1.1040   61.9522 C.ar    1  ZINC000269356812   -0.0600
     13 C13       -10.7260   -1.6325   61.1483 C.ar    1  ZINC000269356812   -0.1200
     14 C14       -12.0527   -1.2944   61.3975 C.ar    1  ZINC000269356812    0.1000
     15 S15       -13.3275   -1.9616   60.3805 S.3     1  ZINC000269356812   -0.0600
     16 C16       -14.6098   -2.4173   61.5799 C.3     1  ZINC000269356812    0.2900
     17 F17       -15.0824   -1.2652   62.2176 F       1  ZINC000269356812   -0.1700
     18 F18       -15.6665   -3.0493   60.9155 F       1  ZINC000269356812   -0.1700
     19 N19       -12.3680   -0.4771   62.3910 N.ar    1  ZINC000269356812   -0.4600
     20 C20       -11.4473    0.0410   63.1809 C.ar    1  ZINC000269356812    0.1100
     21 C21        -3.9137    3.2919   66.3513 C.2     1  ZINC000269356812   -0.2300
     22 C22        -3.9937    4.4868   66.9388 C.2     1  ZINC000269356812   -0.1100
     23 C23        -2.9067    4.8232   67.7271 C.2     1  ZINC000269356812   -0.1400
     24 C24        -1.9440    3.9014   67.7799 C.2     1  ZINC000269356812   -0.2000
     25 S25        -2.4005    2.5149   66.7987 S.3     1  ZINC000269356812    0.1100
     26 H26        -3.5802    2.3394   63.8343 H       1  ZINC000269356812    0.0800
     27 H27        -3.7694    0.9708   64.9566 H       1  ZINC000269356812    0.0800
     28 H28        -5.0510    1.3386   63.7774 H       1  ZINC000269356812    0.0700
     29 H29        -6.3544    3.4336   64.1753 H       1  ZINC000269356812    0.3800
     30 H30        -5.4384    1.1007   66.8149 H       1  ZINC000269356812    0.0900
     31 H31        -6.4431    2.5574   67.0063 H       1  ZINC000269356812    0.0900
     32 H32        -7.1531    1.7062   64.5376 H       1  ZINC000269356812    0.4200
     33 H33        -8.7675    1.1875   63.6308 H       1  ZINC000269356812    0.4300
     34 H34        -8.6955   -1.3488   61.7818 H       1  ZINC000269356812    0.1600
     35 H35       -10.4749   -2.2992   60.3365 H       1  ZINC000269356812    0.1500
     36 H36       -14.1889   -3.0963   62.3215 H       1  ZINC000269356812    0.1500
     37 H37       -11.7420    0.7039   63.9810 H       1  ZINC000269356812    0.1700
     38 H38        -4.8421    5.1424   66.8089 H       1  ZINC000269356812    0.1500
     39 H39        -2.8428    5.7611   68.2589 H       1  ZINC000269356812    0.1400
     40 H40        -1.0263    3.9912   68.3421 H       1  ZINC000269356812    0.1700
@<TRIPOS>BOND
     1     1     2    1
     2     1    26    1
     3     1    27    1
     4     1    28    1
     5     2     3    1
     6     2     4    1
     7     2    21    1
     8     3    29    1
     9     4     5    1
    10     4    30    1
    11     4    31    1
    12     5     6   am
    13     5    32    1
    14     6     7    2
    15     6     8    1
    16     8     9    2
    17     8    10   am
    18    10    11    1
    19    10    33    1
    20    11    20   ar
    21    11    12   ar
    22    12    13   ar
    23    12    34    1
    24    13    14   ar
    25    13    35    1
    26    14    15    1
    27    14    19   ar
    28    15    16    1
    29    16    17    1
    30    16    18    1
    31    16    36    1
    32    19    20   ar
    33    20    37    1
    34    21    25    1
    35    21    22    2
    36    22    23    1
    37    22    38    1
    38    23    24    2
    39    23    39    1
    40    24    25    1
    41    24    40    1
@<TRIPOS>SUBSTRUCTURE
     1 ZINC000269356812        1 TEMP              0 ****  ****    0 ROOT


##########                                Name:    ZINC000013809319
##########                DOCK_Rotatable_Bonds:                  10
##########                         Heavy_Atoms:                  30
##########                    Molecular_Weight:             407.469
##########                DOCK_Rotatable_Bonds:                  10
##########                       Formal_Charge:         -0.00999978
##########                     HBond_Acceptors:                   7
##########                        HBond_Donors:                   1
##########                         Heavy_Atoms:                  30
##########                          Grid_Score:          -34.791111
##########                     Grid_vdw_energy:          -33.205704
##########                      Grid_es_energy:           -1.585409
##########           Internal_energy_repulsive:           14.583270

@<TRIPOS>MOLECULE
ZINC000013809319
 55 57 1 0 0
SMALL
USER_CHARGES


@<TRIPOS>ATOM
      1 C1        -11.8583    2.4536   49.7037 C.3     1  ZINC000013809319   -0.1500
      2 C2        -12.5609    1.2045   50.2396 C.3     1  ZINC000013809319    0.0500
      3 O3        -13.1138    1.4845   51.5271 O.3     1  ZINC000013809319   -0.3100
      4 C4        -12.5642    0.8387   52.5877 C.ar    1  ZINC000013809319    0.1500
      5 C5        -11.1850    0.8285   52.7540 C.ar    1  ZINC000013809319   -0.2200
      6 C6        -10.6239    0.1747   53.8293 C.ar    1  ZINC000013809319   -0.0300
      7 C7        -11.4429   -0.4778   54.7521 C.ar    1  ZINC000013809319   -0.1100
      8 C8        -10.8440   -1.1808   55.9086 C.2     1  ZINC000013809319    0.2300
      9 C9        -11.2788   -2.4496   56.2558 C.2     1  ZINC000013809319   -0.2900
     10 C10       -10.6824   -3.0812   57.3610 C.2     1  ZINC000013809319    0.5300
     11 O11       -11.0334   -4.1989   57.7027 O.2     1  ZINC000013809319   -0.5400
     12 N12        -9.7140   -2.4278   58.0363 N.am    1  ZINC000013809319   -0.5100
     13 C13        -9.0753   -3.0630   59.1916 C.3     1  ZINC000013809319    0.0700
     14 C14        -9.7927   -2.6514   60.4514 C.2     1  ZINC000013809319    0.5000
     15 O15       -10.9027   -3.0808   60.6850 O.2     1  ZINC000013809319   -0.5200
     16 N16        -9.2008   -1.8062   61.3184 N.am    1  ZINC000013809319   -0.7200
     17 C17        -9.8975   -1.4074   62.5439 C.3     1  ZINC000013809319    0.1300
     18 C18        -9.4162   -0.0208   62.9759 C.3     1  ZINC000013809319   -0.0800
     19 C19       -10.1024    0.3719   64.2589 C.ar    1  ZINC000013809319   -0.1200
     20 C20       -11.3024    1.0548   64.2200 C.ar    1  ZINC000013809319   -0.0800
     21 C21       -11.9322    1.4160   65.3969 C.ar    1  ZINC000013809319   -0.1500
     22 C22       -11.3633    1.0941   66.6150 C.ar    1  ZINC000013809319   -0.0800
     23 C23       -10.1633    0.4107   66.6594 C.ar    1  ZINC000013809319   -0.2100
     24 C24        -9.5321    0.0427   65.4802 C.ar    1  ZINC000013809319    0.1300
     25 O25        -8.3518   -0.6295   65.5211 O.3     1  ZINC000013809319   -0.3100
     26 C26        -7.8184   -0.9258   66.8134 C.3     1  ZINC000013809319    0.0300
     27 C27        -9.3310   -1.1933   57.6527 C.2     1  ZINC000013809319    0.3900
     28 N28        -9.8700   -0.5950   56.6269 N.2     1  ZINC000013809319   -0.5300
     29 C29       -12.8283   -0.4655   54.5819 C.ar    1  ZINC000013809319   -0.0500
     30 C30       -13.3828    0.1948   53.5072 C.ar    1  ZINC000013809319   -0.1600
     31 H31       -12.5781    3.2679   49.6207 H       1  ZINC000013809319    0.0700
     32 H32       -11.0598    2.7426   50.3870 H       1  ZINC000013809319    0.0700
     33 H33       -11.4365    2.2400   48.7215 H       1  ZINC000013809319    0.0800
     34 H34       -13.3594    0.9155   49.5562 H       1  ZINC000013809319    0.0600
     35 H35       -11.8411    0.3901   50.3225 H       1  ZINC000013809319    0.0600
     36 H36       -10.5518    1.3333   52.0393 H       1  ZINC000013809319    0.1300
     37 H37        -9.5515    0.1668   53.9578 H       1  ZINC000013809319    0.1400
     38 H38       -12.0573   -2.9413   55.6912 H       1  ZINC000013809319    0.1600
     39 H39        -9.1239   -4.1465   59.0834 H       1  ZINC000013809319    0.1300
     40 H40        -8.0328   -2.7498   59.2483 H       1  ZINC000013809319    0.1300
     41 H41        -8.3135   -1.4618   61.1309 H       1  ZINC000013809319    0.4000
     42 H42       -10.9711   -1.3778   62.3583 H       1  ZINC000013809319    0.0700
     43 H43        -9.6848   -2.1281   63.3336 H       1  ZINC000013809319    0.0700
     44 H44        -8.3378   -0.0429   63.1327 H       1  ZINC000013809319    0.0800
     45 H45        -9.6555    0.7053   62.1989 H       1  ZINC000013809319    0.0800
     46 H46       -11.7488    1.3074   63.2696 H       1  ZINC000013809319    0.1300
     47 H47       -12.8701    1.9506   65.3644 H       1  ZINC000013809319    0.1300
     48 H48       -11.8569    1.3775   67.5329 H       1  ZINC000013809319    0.1300
     49 H49        -9.7190    0.1598   67.6113 H       1  ZINC000013809319    0.1300
     50 H50        -8.5264   -1.5434   67.3659 H       1  ZINC000013809319    0.0600
     51 H51        -6.8765   -1.4631   66.7031 H       1  ZINC000013809319    0.1000
     52 H52        -7.6453    0.0031   67.3566 H       1  ZINC000013809319    0.0600
     53 H53        -8.5542   -0.6880   58.2074 H       1  ZINC000013809319    0.2000
     54 H54       -13.4650   -0.9693   55.2941 H       1  ZINC000013809319    0.1400
     55 H55       -14.4547    0.2051   53.3750 H       1  ZINC000013809319    0.1400
@<TRIPOS>BOND
     1     1     2    1
     2     1    31    1
     3     1    32    1
     4     1    33    1
     5     2     3    1
     6     2    34    1
     7     2    35    1
     8     3     4    1
     9     4    30   ar
    10     4     5   ar
    11     5     6   ar
    12     5    36    1
    13     6     7   ar
    14     6    37    1
    15     7     8    1
    16     7    29   ar
    17     8    28    1
    18     8     9    2
    19     9    10    1
    20     9    38    1
    21    10    11    2
    22    10    12   am
    23    12    13    1
    24    12    27    1
    25    13    14    1
    26    13    39    1
    27    13    40    1
    28    14    15    2
    29    14    16   am
    30    16    17    1
    31    16    41    1
    32    17    18    1
    33    17    42    1
    34    17    43    1
    35    18    19    1
    36    18    44    1
    37    18    45    1
    38    19    24   ar
    39    19    20   ar
    40    20    21   ar
    41    20    46    1
    42    21    22   ar
    43    21    47    1
    44    22    23   ar
    45    22    48    1
    46    23    24   ar
    47    23    49    1
    48    24    25    1
    49    25    26    1
    50    26    50    1
    51    26    51    1
    52    26    52    1
    53    27    28    2
    54    27    53    1
    55    29    30   ar
    56    29    54    1
    57    30    55    1
@<TRIPOS>SUBSTRUCTURE
     1 ZINC000013809319        1 TEMP              0 ****  ****    0 ROOT


##########                                Name:    ZINC000027473870
##########                DOCK_Rotatable_Bonds:                  10
##########                         Heavy_Atoms:                  31
##########                    Molecular_Weight:             422.502
##########                DOCK_Rotatable_Bonds:                  10
##########                       Formal_Charge:        -7.45058e-08
##########                     HBond_Acceptors:                   7
##########                        HBond_Donors:                   1
##########                         Heavy_Atoms:                  31
##########                          Grid_Score:          -34.736294
##########                     Grid_vdw_energy:          -33.627705
##########                      Grid_es_energy:           -1.108588
##########           Internal_energy_repulsive:           15.502230

@<TRIPOS>MOLECULE
ZINC000027473870
 58 60 1 0 0
SMALL
USER_CHARGES


@<TRIPOS>ATOM
      1 C1          1.0662    2.8183   51.3983 C.3     1  ZINC000027473870   -0.1400
      2 C2          0.1539    3.4656   50.3545 C.3     1  ZINC000027473870   -0.0800
      3 C3         -1.2731    3.0541   50.6102 C.2     1  ZINC000027473870    0.1700
      4 C4         -2.0517    3.4288   51.6871 C.2     1  ZINC000027473870   -0.2900
      5 C5         -1.6427    4.3052   52.7997 C.2     1  ZINC000027473870    0.6000
      6 O6         -0.9472    5.2788   52.5826 O.2     1  ZINC000027473870   -0.5400
      7 N7         -2.0397    4.0275   54.0573 N.am    1  ZINC000027473870   -0.7200
      8 C8         -1.6347    4.8996   55.1627 C.3     1  ZINC000027473870    0.1600
      9 C9         -1.7274    4.1404   56.4612 C.ar    1  ZINC000027473870   -0.0900
     10 C10        -0.6816    4.1926   57.3657 C.ar    1  ZINC000027473870   -0.1100
     11 C11        -0.7598    3.4996   58.5560 C.ar    1  ZINC000027473870   -0.1100
     12 C12        -1.8973    2.7450   58.8470 C.ar    1  ZINC000027473870   -0.1200
     13 C13        -1.9882    2.0001   60.1210 C.2     1  ZINC000027473870    0.5600
     14 O14        -1.7918    0.8007   60.1391 O.2     1  ZINC000027473870   -0.5300
     15 N15        -2.2888    2.6510   61.2622 N.am    1  ZINC000027473870   -0.6100
     16 C16        -2.5255    4.0966   61.2404 C.3     1  ZINC000027473870    0.1100
     17 C17        -4.0005    4.3672   60.9370 C.3     1  ZINC000027473870   -0.1700
     18 C18        -2.3789    1.9130   62.5246 C.3     1  ZINC000027473870    0.0900
     19 C19        -1.0131    1.9136   63.2143 C.3     1  ZINC000027473870   -0.1800
     20 C20        -2.9489    2.6969   57.9306 C.ar    1  ZINC000027473870   -0.0700
     21 C21        -2.8601    3.3988   56.7461 C.ar    1  ZINC000027473870   -0.1000
     22 C22        -3.3142    2.8153   51.5231 C.2     1  ZINC000027473870    0.0900
     23 N23        -3.2861    2.1208   50.4188 N.2     1  ZINC000027473870   -0.2800
     24 N24        -2.0250    2.2587   49.8282 N.pl3   1  ZINC000027473870   -0.3100
     25 C25        -1.6119    1.6609   48.6290 C.ar    1  ZINC000027473870    0.1300
     26 C26        -1.4500    0.2838   48.5586 C.ar    1  ZINC000027473870   -0.0900
     27 C27        -1.0434   -0.3033   47.3765 C.ar    1  ZINC000027473870   -0.1300
     28 C28        -0.7972    0.4808   46.2619 C.ar    1  ZINC000027473870    0.1100
     29 F29        -0.3999   -0.0952   45.1062 F       1  ZINC000027473870   -0.1300
     30 C30        -0.9580    1.8547   46.3303 C.ar    1  ZINC000027473870   -0.1400
     31 C31        -1.3695    2.4448   47.5091 C.ar    1  ZINC000027473870   -0.0700
     32 H32         2.1060    3.0441   51.1621 H       1  ZINC000027473870    0.0700
     33 H33         0.8244    3.2111   52.3858 H       1  ZINC000027473870    0.0700
     34 H34         0.9181    1.7384   51.3905 H       1  ZINC000027473870    0.0500
     35 H35         0.2369    4.5503   50.4221 H       1  ZINC000027473870    0.1200
     36 H36         0.4532    3.1398   49.3583 H       1  ZINC000027473870    0.0800
     37 H37        -2.5935    3.2502   54.2307 H       1  ZINC000027473870    0.4000
     38 H38        -0.6077    5.2299   55.0074 H       1  ZINC000027473870    0.0800
     39 H39        -2.2935    5.7670   55.2012 H       1  ZINC000027473870    0.0800
     40 H40         0.1980    4.7769   57.1392 H       1  ZINC000027473870    0.1300
     41 H41         0.0575    3.5405   59.2608 H       1  ZINC000027473870    0.1500
     42 H42        -2.2704    4.5212   62.2113 H       1  ZINC000027473870    0.0800
     43 H43        -1.9059    4.5546   60.4694 H       1  ZINC000027473870    0.0800
     44 H44        -4.1766    5.4428   60.9207 H       1  ZINC000027473870    0.0700
     45 H45        -4.2556    3.9426   59.9660 H       1  ZINC000027473870    0.0600
     46 H46        -4.6201    3.9092   61.7080 H       1  ZINC000027473870    0.0600
     47 H47        -3.1135    2.3904   63.1729 H       1  ZINC000027473870    0.0800
     48 H48        -2.6841    0.8859   62.3240 H       1  ZINC000027473870    0.0900
     49 H49        -1.0057    1.1649   64.0063 H       1  ZINC000027473870    0.0700
     50 H50        -0.2377    1.6790   62.4851 H       1  ZINC000027473870    0.0700
     51 H51        -0.8230    2.8977   63.6428 H       1  ZINC000027473870    0.0600
     52 H52        -3.8316    2.1145   58.1497 H       1  ZINC000027473870    0.1300
     53 H53        -3.6732    3.3628   56.0362 H       1  ZINC000027473870    0.1300
     54 H54        -4.1552    2.9052   52.1948 H       1  ZINC000027473870    0.1900
     55 H55        -1.6416   -0.3281   49.4277 H       1  ZINC000027473870    0.1500
     56 H56        -0.9172   -1.3745   47.3215 H       1  ZINC000027473870    0.1500
     57 H57        -0.7651    2.4645   45.4600 H       1  ZINC000027473870    0.1500
     58 H58        -1.4952    3.5161   47.5619 H       1  ZINC000027473870    0.1400
@<TRIPOS>BOND
     1     1     2    1
     2     1    32    1
     3     1    33    1
     4     1    34    1
     5     2     3    1
     6     2    35    1
     7     2    36    1
     8     3    24    1
     9     3     4    2
    10     4     5    1
    11     4    22    1
    12     5     6    2
    13     5     7   am
    14     7     8    1
    15     7    37    1
    16     8     9    1
    17     8    38    1
    18     8    39    1
    19     9    21   ar
    20     9    10   ar
    21    10    11   ar
    22    10    40    1
    23    11    12   ar
    24    11    41    1
    25    12    13    1
    26    12    20   ar
    27    13    14    2
    28    13    15   am
    29    15    16    1
    30    15    18    1
    31    16    17    1
    32    16    42    1
    33    16    43    1
    34    17    44    1
    35    17    45    1
    36    17    46    1
    37    18    19    1
    38    18    47    1
    39    18    48    1
    40    19    49    1
    41    19    50    1
    42    19    51    1
    43    20    21   ar
    44    20    52    1
    45    21    53    1
    46    22    23    2
    47    22    54    1
    48    23    24    1
    49    24    25    1
    50    25    31   ar
    51    25    26   ar
    52    26    27   ar
    53    26    55    1
    54    27    28   ar
    55    27    56    1
    56    28    29    1
    57    28    30   ar
    58    30    31   ar
    59    30    57    1
    60    31    58    1
@<TRIPOS>SUBSTRUCTURE
     1 ZINC000027473870        1 TEMP              0 ****  ****    0 ROOT


##########                                Name:    ZINC000489986384
##########                DOCK_Rotatable_Bonds:                  11
##########                         Heavy_Atoms:                  31
##########                    Molecular_Weight:             415.492
##########                DOCK_Rotatable_Bonds:                  11
##########                       Formal_Charge:          -0.0499997
##########                     HBond_Acceptors:                   6
##########                        HBond_Donors:                   2
##########                         Heavy_Atoms:                  31
##########                          Grid_Score:          -34.482586
##########                     Grid_vdw_energy:          -32.870018
##########                      Grid_es_energy:           -1.612570
##########           Internal_energy_repulsive:            9.622641

@<TRIPOS>MOLECULE
ZINC000489986384
 56 59 1 0 0
SMALL
USER_CHARGES


@<TRIPOS>ATOM
      1 O1        -10.5183   -1.4933   56.2480 O.2     1  ZINC000489986384   -0.5000
      2 C2        -11.0253   -0.7422   57.0541 C.2     1  ZINC000489986384    0.4900
      3 C3        -12.1414   -1.2307   57.9410 C.3     1  ZINC000489986384    0.0900
      4 N4        -12.1854   -2.6947   57.9091 N.pl3   1  ZINC000489986384   -0.4700
      5 C5        -13.1137   -3.4712   57.2447 C.ar    1  ZINC000489986384    0.0700
      6 C6        -14.2197   -3.1915   56.4544 C.ar    1  ZINC000489986384   -0.1100
      7 C7        -14.9602   -4.2272   55.9247 C.ar    1  ZINC000489986384   -0.0900
      8 C8        -14.6072   -5.5449   56.1773 C.ar    1  ZINC000489986384   -0.1300
      9 C9        -13.5220   -5.8392   56.9535 C.ar    1  ZINC000489986384   -0.0600
     10 C10       -12.7563   -4.8063   57.5000 C.ar    1  ZINC000489986384    0.0500
     11 N11       -11.6524   -4.7759   58.2900 N.2     1  ZINC000489986384   -0.4600
     12 C12       -11.3155   -3.5411   58.5236 C.2     1  ZINC000489986384    0.2800
     13 C13       -10.1396   -3.1110   59.3622 C.3     1  ZINC000489986384    0.1400
     14 O14       -10.4517   -3.2859   60.7457 O.3     1  ZINC000489986384   -0.3000
     15 C15       -10.5869   -2.1602   61.4949 C.ar    1  ZINC000489986384    0.1300
     16 C16       -11.8507   -1.6904   61.8212 C.ar    1  ZINC000489986384   -0.2100
     17 C17       -11.9855   -0.5460   62.5833 C.ar    1  ZINC000489986384   -0.0800
     18 C18       -10.8620    0.1312   63.0203 C.ar    1  ZINC000489986384   -0.1600
     19 C19        -9.6013   -0.3347   62.6960 C.ar    1  ZINC000489986384   -0.0800
     20 C20        -9.4612   -1.4821   61.9394 C.ar    1  ZINC000489986384   -0.1500
     21 N21       -10.5866    0.5277   57.1607 N.am    1  ZINC000489986384   -0.7300
     22 C22        -9.5016    1.0026   56.2986 C.3     1  ZINC000489986384    0.1300
     23 C23       -10.0456    1.2677   54.8934 C.3     1  ZINC000489986384   -0.0600
     24 H24       -10.9729    0.7124   54.7519 H       1  ZINC000489986384    0.0900
     25 C25       -10.3165    2.7640   54.7252 C.3     1  ZINC000489986384    0.0800
     26 O26       -11.4981    3.1183   55.4467 O.3     1  ZINC000489986384   -0.5700
     27 C27        -9.0326    0.8225   53.8703 C.ar    1  ZINC000489986384   -0.0700
     28 C28        -9.3993   -0.0637   52.8747 C.ar    1  ZINC000489986384   -0.1100
     29 C29        -8.4701   -0.4721   51.9363 C.ar    1  ZINC000489986384   -0.1200
     30 C30        -7.1743    0.0059   51.9932 C.ar    1  ZINC000489986384   -0.1200
     31 C31        -6.8078    0.8928   52.9882 C.ar    1  ZINC000489986384   -0.1200
     32 C32        -7.7381    1.3045   53.9241 C.ar    1  ZINC000489986384   -0.1100
     33 H33       -11.9669   -0.8947   58.9632 H       1  ZINC000489986384    0.1200
     34 H34       -13.0906   -0.8310   57.5841 H       1  ZINC000489986384    0.1200
     35 H35       -14.4992   -2.1675   56.2552 H       1  ZINC000489986384    0.1200
     36 H36       -15.8211   -4.0110   55.3095 H       1  ZINC000489986384    0.1300
     37 H37       -15.1965   -6.3462   55.7564 H       1  ZINC000489986384    0.1300
     38 H38       -13.2565   -6.8685   57.1444 H       1  ZINC000489986384    0.1300
     39 H39        -9.2700   -3.7164   59.1065 H       1  ZINC000489986384    0.0800
     40 H40        -9.9204   -2.0608   59.1693 H       1  ZINC000489986384    0.1000
     41 H41       -12.7286   -2.2186   61.4795 H       1  ZINC000489986384    0.1300
     42 H42       -12.9692   -0.1799   62.8377 H       1  ZINC000489986384    0.1300
     43 H43       -10.9696    1.0258   63.6158 H       1  ZINC000489986384    0.1200
     44 H44        -8.7253    0.1961   63.0384 H       1  ZINC000489986384    0.1300
     45 H45        -8.4762   -1.8456   61.6864 H       1  ZINC000489986384    0.1300
     46 H46       -10.9895    1.1272   57.8082 H       1  ZINC000489986384    0.4000
     47 H47        -9.0890    1.9246   56.7083 H       1  ZINC000489986384    0.0800
     48 H48        -8.7193    0.2453   56.2484 H       1  ZINC000489986384    0.0800
     49 H49        -9.4706    3.3322   55.1121 H       1  ZINC000489986384    0.0500
     50 H50       -10.4542    2.9919   53.6682 H       1  ZINC000489986384    0.0500
     51 H51       -12.2962    2.6663   55.1405 H       1  ZINC000489986384    0.3800
     52 H52       -10.4117   -0.4371   52.8304 H       1  ZINC000489986384    0.1200
     53 H53        -8.7564   -1.1649   51.1589 H       1  ZINC000489986384    0.1200
     54 H54        -6.4482   -0.3137   51.2604 H       1  ZINC000489986384    0.1200
     55 H55        -5.7953    1.2661   53.0328 H       1  ZINC000489986384    0.1200
     56 H56        -7.4518    1.9974   54.7015 H       1  ZINC000489986384    0.1200
@<TRIPOS>BOND
     1     1     2    2
     2     2     3    1
     3     2    21   am
     4     3     4    1
     5     3    33    1
     6     3    34    1
     7     4    12    1
     8     4     5    1
     9     5    10   ar
    10     5     6   ar
    11     6     7   ar
    12     6    35    1
    13     7     8   ar
    14     7    36    1
    15     8     9   ar
    16     8    37    1
    17     9    10   ar
    18     9    38    1
    19    10    11    1
    20    11    12    2
    21    12    13    1
    22    13    14    1
    23    13    39    1
    24    13    40    1
    25    14    15    1
    26    15    20   ar
    27    15    16   ar
    28    16    17   ar
    29    16    41    1
    30    17    18   ar
    31    17    42    1
    32    18    19   ar
    33    18    43    1
    34    19    20   ar
    35    19    44    1
    36    20    45    1
    37    21    22    1
    38    21    46    1
    39    22    23    1
    40    22    47    1
    41    22    48    1
    42    23    24    1
    43    23    25    1
    44    23    27    1
    45    25    26    1
    46    25    49    1
    47    25    50    1
    48    26    51    1
    49    27    32   ar
    50    27    28   ar
    51    28    29   ar
    52    28    52    1
    53    29    30   ar
    54    29    53    1
    55    30    31   ar
    56    30    54    1
    57    31    32   ar
    58    31    55    1
    59    32    56    1
@<TRIPOS>SUBSTRUCTURE
     1 ZINC000489986384        1 TEMP              0 ****  ****    0 ROOT


##########                                Name:    ZINC000428266315
##########                DOCK_Rotatable_Bonds:                  10
##########                         Heavy_Atoms:                  30
##########                    Molecular_Weight:             423.438
##########                DOCK_Rotatable_Bonds:                  10
##########                       Formal_Charge:          0.00999977
##########                     HBond_Acceptors:                  10
##########                        HBond_Donors:                   0
##########                         Heavy_Atoms:                  30
##########                          Grid_Score:          -34.408615
##########                     Grid_vdw_energy:          -30.770731
##########                      Grid_es_energy:           -3.637886
##########           Internal_energy_repulsive:           13.395118

@<TRIPOS>MOLECULE
ZINC000428266315
 54 56 1 0 0
SMALL
USER_CHARGES


@<TRIPOS>ATOM
      1 C1          3.3409   -0.5303   60.0953 C.3     1  ZINC000428266315   -0.1500
      2 C2          3.5594    0.7288   59.2538 C.3     1  ZINC000428266315    0.0600
      3 O3          4.0869    0.3628   57.9771 O.3     1  ZINC000428266315   -0.3700
      4 C4          4.3292    1.4716   57.1089 C.3     1  ZINC000428266315    0.1800
      5 H5          3.3951    2.0042   56.9303 H       1  ZINC000428266315    0.0900
      6 C6          5.3395    2.4182   57.7603 C.3     1  ZINC000428266315   -0.1700
      7 C7          4.8813    0.9723   55.7985 C.2     1  ZINC000428266315    0.1700
      8 N8          5.6038   -0.0936   55.6246 N.2     1  ZINC000428266315   -0.3500
      9 O9          5.8893   -0.2208   54.4527 O.3     1  ZINC000428266315    0.0800
     10 C10         5.3597    0.7823   53.7461 C.2     1  ZINC000428266315    0.1900
     11 C11         5.4797    0.9937   52.2588 C.3     1  ZINC000428266315    0.1500
     12 N12         4.3098    1.7382   51.7740 N.3     1  ZINC000428266315   -0.5300
     13 C13         4.5588    2.2991   50.4393 C.3     1  ZINC000428266315    0.0200
     14 C14         3.1098    0.8910   51.7736 C.3     1  ZINC000428266315    0.1400
     15 C15         1.8934    1.7432   51.5183 C.2     1  ZINC000428266315   -0.2300
     16 C16         0.8719    1.4428   50.6832 C.2     1  ZINC000428266315    0.0800
     17 N17        -0.0157    2.4579   50.7371 N.pl3   1  ZINC000428266315   -0.3700
     18 C18        -1.2723    2.5447   49.9891 C.3     1  ZINC000428266315    0.1700
     19 C19        -1.0742    1.9782   48.6068 C.ar    1  ZINC000428266315   -0.0800
     20 C20        -1.2842    0.6318   48.3749 C.ar    1  ZINC000428266315   -0.1000
     21 C21        -1.1025    0.1121   47.1069 C.ar    1  ZINC000428266315   -0.0700
     22 C22        -0.7112    0.9390   46.0706 C.ar    1  ZINC000428266315   -0.1700
     23 C23        -0.5126    0.3724   44.6884 C.3     1  ZINC000428266315    0.5100
     24 F24        -1.0306    1.2619   43.7409 F       1  ZINC000428266315   -0.1700
     25 F25         0.8536    0.1843   44.4534 F       1  ZINC000428266315   -0.1800
     26 F26        -1.1765   -0.8548   44.5877 F       1  ZINC000428266315   -0.1800
     27 C27        -0.5024    2.2858   46.3021 C.ar    1  ZINC000428266315   -0.0700
     28 C28        -0.6879    2.8061   47.5693 C.ar    1  ZINC000428266315   -0.0800
     29 N29         0.4767    3.4138   51.6351 N.2     1  ZINC000428266315   -0.2900
     30 C30         1.6178    2.9816   52.1071 C.2     1  ZINC000428266315    0.0600
     31 N31         4.7117    1.5448   54.5934 N.2     1  ZINC000428266315   -0.4600
     32 H32         2.9386   -0.2511   61.0691 H       1  ZINC000428266315    0.0700
     33 H33         2.6374   -1.1894   59.5869 H       1  ZINC000428266315    0.0600
     34 H34         4.2912   -1.0471   60.2294 H       1  ZINC000428266315    0.0600
     35 H35         2.6091    1.2456   59.1198 H       1  ZINC000428266315    0.0500
     36 H36         4.2630    1.3880   59.7623 H       1  ZINC000428266315    0.0500
     37 H37         6.2735    1.8856   57.9390 H       1  ZINC000428266315    0.0700
     38 H38         5.5243    3.2639   57.0980 H       1  ZINC000428266315    0.0700
     39 H39         4.9401    2.7794   58.7081 H       1  ZINC000428266315    0.0700
     40 H40         6.3856    1.5606   52.0442 H       1  ZINC000428266315    0.0800
     41 H41         5.5286    0.0272   51.7572 H       1  ZINC000428266315    0.1200
     42 H42         4.7733    1.4910   49.7398 H       1  ZINC000428266315    0.0400
     43 H43         3.6769    2.8450   50.1042 H       1  ZINC000428266315    0.0800
     44 H44         5.4110    2.9772   50.4833 H       1  ZINC000428266315    0.0600
     45 H45         3.1969    0.1381   50.9901 H       1  ZINC000428266315    0.0500
     46 H46         3.0121    0.3989   52.7412 H       1  ZINC000428266315    0.0900
     47 H47         0.7829    0.5505   50.0812 H       1  ZINC000428266315    0.1700
     48 H48        -2.0440    1.9760   50.5078 H       1  ZINC000428266315    0.1000
     49 H49        -1.5787    3.5881   49.9136 H       1  ZINC000428266315    0.1100
     50 H50        -1.5899   -0.0143   49.1846 H       1  ZINC000428266315    0.1300
     51 H51        -1.2660   -0.9401   46.9260 H       1  ZINC000428266315    0.1400
     52 H52        -0.1970    2.9319   45.4924 H       1  ZINC000428266315    0.1400
     53 H53        -0.5248    3.8583   47.7502 H       1  ZINC000428266315    0.1400
     54 H54         2.2428    3.4959   52.8221 H       1  ZINC000428266315    0.1800
@<TRIPOS>BOND
     1     1     2    1
     2     1    32    1
     3     1    33    1
     4     1    34    1
     5     2     3    1
     6     2    35    1
     7     2    36    1
     8     3     4    1
     9     4     5    1
    10     4     6    1
    11     4     7    1
    12     6    37    1
    13     6    38    1
    14     6    39    1
    15     7    31    1
    16     7     8    2
    17     8     9    1
    18     9    10    1
    19    10    11    1
    20    10    31    2
    21    11    12    1
    22    11    40    1
    23    11    41    1
    24    12    13    1
    25    12    14    1
    26    13    42    1
    27    13    43    1
    28    13    44    1
    29    14    15    1
    30    14    45    1
    31    14    46    1
    32    15    30    1
    33    15    16    2
    34    16    17    1
    35    16    47    1
    36    17    18    1
    37    17    29    1
    38    18    19    1
    39    18    48    1
    40    18    49    1
    41    19    28   ar
    42    19    20   ar
    43    20    21   ar
    44    20    50    1
    45    21    22   ar
    46    21    51    1
    47    22    23    1
    48    22    27   ar
    49    23    24    1
    50    23    25    1
    51    23    26    1
    52    27    28   ar
    53    27    52    1
    54    28    53    1
    55    29    30    2
    56    30    54    1
@<TRIPOS>SUBSTRUCTURE
     1 ZINC000428266315        1 TEMP              0 ****  ****    0 ROOT


##########                                Name:    ZINC000550952205
##########                DOCK_Rotatable_Bonds:                   7
##########                         Heavy_Atoms:                  28
##########                    Molecular_Weight:             407.484
##########                DOCK_Rotatable_Bonds:                   7
##########                       Formal_Charge:        -2.68221e-07
##########                     HBond_Acceptors:                   8
##########                        HBond_Donors:                   2
##########                         Heavy_Atoms:                  28
##########                          Grid_Score:          -34.341068
##########                     Grid_vdw_energy:          -27.278311
##########                      Grid_es_energy:           -7.062756
##########           Internal_energy_repulsive:            5.760833

@<TRIPOS>MOLECULE
ZINC000550952205
 51 54 1 0 0
SMALL
USER_CHARGES


@<TRIPOS>ATOM
      1 O1         -6.7492   -0.1549   67.2825 O.2     1  ZINC000550952205   -0.5100
      2 C2         -7.0910    0.4034   66.2606 C.2     1  ZINC000550952205    0.5100
      3 N3         -6.4031    1.4732   65.8147 N.am    1  ZINC000550952205   -0.7000
      4 C4         -5.2463    1.9656   66.5668 C.3     1  ZINC000550952205    0.1200
      5 C5         -4.2348    2.5839   65.5996 C.3     1  ZINC000550952205   -0.0900
      6 H6         -3.3437    2.8900   66.1479 H       1  ZINC000550952205    0.1000
      7 C7         -3.8595    1.5753   64.5478 C.3     1  ZINC000550952205   -0.1300
      8 C8         -2.3933    1.7137   64.0950 C.3     1  ZINC000550952205   -0.1200
      9 C9         -1.9589    3.1809   63.9171 C.3     1  ZINC000550952205   -0.1300
     10 C10        -3.0152    4.0170   63.2468 C.3     1  ZINC000550952205   -0.1500
     11 C11        -3.8645    4.7005   64.3379 C.3     1  ZINC000550952205    0.3000
     12 F12        -3.0184    5.1387   65.3623 F       1  ZINC000550952205   -0.2000
     13 F13        -4.5119    5.8084   63.7806 F       1  ZINC000550952205   -0.2000
     14 C14        -4.8633    3.8100   64.9065 C.3     1  ZINC000550952205   -0.1700
     15 C15        -8.2701   -0.0985   65.4941 C.2     1  ZINC000550952205    0.5100
     16 O16        -8.8360   -1.1130   65.8463 O.2     1  ZINC000550952205   -0.4900
     17 N17        -8.7061    0.5749   64.4111 N.am    1  ZINC000550952205   -0.6400
     18 C18        -9.8099    0.1051   63.6935 C.ar    1  ZINC000550952205    0.1500
     19 C19       -11.1010    0.3579   64.1542 C.ar    1  ZINC000550952205   -0.1200
     20 C20       -12.1850   -0.0931   63.4660 C.ar    1  ZINC000550952205   -0.0400
     21 C21       -12.0217   -0.8257   62.2725 C.ar    1  ZINC000550952205    0.0800
     22 N22       -12.9531   -1.3535   61.4548 N.2     1  ZINC000550952205   -0.4700
     23 C23       -12.5496   -1.9837   60.4175 C.2     1  ZINC000550952205    0.1200
     24 C24       -13.4644   -2.6284   59.4082 C.3     1  ZINC000550952205   -0.1100
     25 C25       -13.7100   -1.8789   58.0971 C.3     1  ZINC000550952205   -0.1500
     26 C26       -12.8368   -3.1352   58.1083 C.3     1  ZINC000550952205   -0.1500
     27 S27       -10.8462   -2.0024   60.3187 S.3     1  ZINC000550952205    0.1200
     28 C28       -10.7239   -1.0775   61.8122 C.ar    1  ZINC000550952205   -0.1700
     29 C29        -9.6225   -0.6067   62.5217 C.ar    1  ZINC000550952205   -0.0700
     30 H30        -6.6739    1.9171   64.9959 H       1  ZINC000550952205    0.4200
     31 H31        -5.5726    2.7202   67.2825 H       1  ZINC000550952205    0.0800
     32 H32        -4.7798    1.1370   67.0996 H       1  ZINC000550952205    0.0800
     33 H33        -4.0115    0.5736   64.9496 H       1  ZINC000550952205    0.0700
     34 H34        -4.5096    1.7088   63.6832 H       1  ZINC000550952205    0.0700
     35 H35        -1.7498    1.2442   64.8392 H       1  ZINC000550952205    0.0700
     36 H36        -2.2678    1.1923   63.1460 H       1  ZINC000550952205    0.0700
     37 H37        -1.7421    3.6059   64.8971 H       1  ZINC000550952205    0.0800
     38 H38        -1.0513    3.2093   63.3140 H       1  ZINC000550952205    0.0700
     39 H39        -2.5412    4.7751   62.6234 H       1  ZINC000550952205    0.0900
     40 H40        -3.6517    3.3797   62.6329 H       1  ZINC000550952205    0.1000
     41 H41        -5.5194    3.4605   64.1092 H       1  ZINC000550952205    0.1000
     42 H42        -5.4579    4.3643   65.6327 H       1  ZINC000550952205    0.1000
     43 H43        -8.2540    1.3856   64.1296 H       1  ZINC000550952205    0.4300
     44 H44       -11.2426    0.9174   65.0670 H       1  ZINC000550952205    0.1400
     45 H45       -13.1782    0.1114   63.8374 H       1  ZINC000550952205    0.1400
     46 H46       -14.2934   -3.2014   59.8237 H       1  ZINC000550952205    0.1300
     47 H47       -14.7008   -1.9585   57.6498 H       1  ZINC000550952205    0.1000
     48 H48       -13.2098   -0.9195   57.9646 H       1  ZINC000550952205    0.1100
     49 H49       -11.7621   -3.0024   57.9829 H       1  ZINC000550952205    0.1000
     50 H50       -13.2531   -4.0414   57.6681 H       1  ZINC000550952205    0.1100
     51 H51        -8.6234   -0.7989   62.1595 H       1  ZINC000550952205    0.1400
@<TRIPOS>BOND
     1     1     2    2
     2     2     3   am
     3     2    15    1
     4     3     4    1
     5     3    30    1
     6     4     5    1
     7     4    31    1
     8     4    32    1
     9     5     6    1
    10     5    14    1
    11     5     7    1
    12     7     8    1
    13     7    33    1
    14     7    34    1
    15     8     9    1
    16     8    35    1
    17     8    36    1
    18     9    10    1
    19     9    37    1
    20     9    38    1
    21    10    11    1
    22    10    39    1
    23    10    40    1
    24    11    12    1
    25    11    13    1
    26    11    14    1
    27    14    41    1
    28    14    42    1
    29    15    16    2
    30    15    17   am
    31    17    18    1
    32    17    43    1
    33    18    29   ar
    34    18    19   ar
    35    19    20   ar
    36    19    44    1
    37    20    21   ar
    38    20    45    1
    39    21    28   ar
    40    21    22    1
    41    22    23    2
    42    23    24    1
    43    23    27    1
    44    24    26    1
    45    24    25    1
    46    24    46    1
    47    25    26    1
    48    25    47    1
    49    25    48    1
    50    26    49    1
    51    26    50    1
    52    27    28    1
    53    28    29   ar
    54    29    51    1
@<TRIPOS>SUBSTRUCTURE
     1 ZINC000550952205        1 TEMP              0 ****  ****    0 ROOT


##########                                Name:    ZINC000508782983
##########                DOCK_Rotatable_Bonds:                   9
##########                         Heavy_Atoms:                  27
##########                    Molecular_Weight:             373.458
##########                DOCK_Rotatable_Bonds:                   9
##########                       Formal_Charge:          -0.0200006
##########                     HBond_Acceptors:                   9
##########                        HBond_Donors:                   2
##########                         Heavy_Atoms:                  27
##########                          Grid_Score:          -34.205395
##########                     Grid_vdw_energy:          -31.726770
##########                      Grid_es_energy:           -2.478623
##########           Internal_energy_repulsive:           15.059116

@<TRIPOS>MOLECULE
ZINC000508782983
 54 56 1 0 0
SMALL
USER_CHARGES


@<TRIPOS>ATOM
      1 C1         -8.7514    3.4609   55.8064 C.3     1  ZINC000508782983   -0.1500
      2 C2         -8.7065    2.7065   54.4761 C.3     1  ZINC000508782983   -0.1100
      3 C3         -7.8639    3.4947   53.4711 C.3     1  ZINC000508782983   -0.1500
      4 C4         -8.0827    1.3265   54.6931 C.3     1  ZINC000508782983    0.1000
      5 N5         -7.8444    0.6887   53.3959 N.pl3   1  ZINC000508782983   -0.4400
      6 C6         -6.6481    0.6149   52.7347 C.2     1  ZINC000508782983   -0.0400
      7 C7         -6.8773   -0.0526   51.5877 C.2     1  ZINC000508782983   -0.0300
      8 N8         -8.1781   -0.3775   51.5497 N.2     1  ZINC000508782983   -0.4700
      9 C9         -8.7626    0.0590   52.6318 C.2     1  ZINC000508782983    0.1700
     10 C10       -10.2224   -0.1045   52.9685 C.3     1  ZINC000508782983    0.2100
     11 N11       -10.3814   -1.1927   53.9363 N.am    1  ZINC000508782983   -0.6900
     12 C12       -11.5318   -1.3173   54.6273 C.2     1  ZINC000508782983    0.5100
     13 O13       -12.4354   -0.5272   54.4488 O.2     1  ZINC000508782983   -0.5100
     14 C14       -11.6948   -2.4286   55.6133 C.2     1  ZINC000508782983    0.5100
     15 O15       -11.9240   -3.5552   55.2253 O.2     1  ZINC000508782983   -0.5200
     16 N16       -11.5871   -2.1793   56.9335 N.am    1  ZINC000508782983   -0.5800
     17 C17       -11.7378   -3.2593   57.9204 C.3     1  ZINC000508782983    0.0800
     18 C18       -10.5345   -3.2236   58.8686 C.3     1  ZINC000508782983    0.0400
     19 N19       -10.4036   -1.8758   59.4379 N.3     1  ZINC000508782983   -0.5400
     20 C20        -9.3697   -1.8430   60.4809 C.3     1  ZINC000508782983    0.1400
     21 C21        -9.8895   -1.0927   61.6801 C.2     1  ZINC000508782983    0.2100
     22 N22       -10.9029   -1.4503   62.4205 N.2     1  ZINC000508782983   -0.4900
     23 C23       -11.0782   -0.5470   63.3963 C.2     1  ZINC000508782983   -0.0300
     24 C24       -10.1378    0.4065   63.2554 C.2     1  ZINC000508782983   -0.0500
     25 N25        -9.3801    0.0580   62.1699 N.pl3   1  ZINC000508782983   -0.5600
     26 C26       -10.1291   -0.8804   58.3930 C.3     1  ZINC000508782983    0.0400
     27 C27       -11.3097   -0.8211   57.4250 C.3     1  ZINC000508782983    0.1100
     28 H28        -9.1957    4.4441   55.6517 H       1  ZINC000508782983    0.0700
     29 H29        -9.3516    2.8995   56.5224 H       1  ZINC000508782983    0.0600
     30 H30        -7.7388    3.5765   56.1928 H       1  ZINC000508782983    0.0600
     31 H31        -9.7191    2.5909   54.0895 H       1  ZINC000508782983    0.0800
     32 H32        -6.8745    3.6769   53.8904 H       1  ZINC000508782983    0.0600
     33 H33        -7.7678    2.9214   52.5489 H       1  ZINC000508782983    0.0600
     34 H34        -8.3493    4.4471   53.2578 H       1  ZINC000508782983    0.0600
     35 H35        -7.1370    1.4346   55.2240 H       1  ZINC000508782983    0.1000
     36 H36        -8.7615    0.7095   55.2819 H       1  ZINC000508782983    0.0900
     37 H37        -5.7022    1.0154   53.0685 H       1  ZINC000508782983    0.1800
     38 H38        -6.1426   -0.2856   50.8313 H       1  ZINC000508782983    0.1700
     39 H39       -10.6021    0.8224   53.3983 H       1  ZINC000508782983    0.0900
     40 H40       -10.7802   -0.3400   52.0621 H       1  ZINC000508782983    0.1100
     41 H41        -9.6587   -1.8236   54.0799 H       1  ZINC000508782983    0.4200
     42 H42       -12.6562   -3.1107   58.4884 H       1  ZINC000508782983    0.0800
     43 H43       -11.7721   -4.2210   57.4085 H       1  ZINC000508782983    0.1400
     44 H44       -10.6832   -3.9450   59.6721 H       1  ZINC000508782983    0.0900
     45 H45        -9.6289   -3.4749   58.3166 H       1  ZINC000508782983    0.0400
     46 H46        -9.1150   -2.8620   60.7723 H       1  ZINC000508782983    0.0900
     47 H47        -8.4812   -1.3423   60.0962 H       1  ZINC000508782983    0.0700
     48 H48       -11.8401   -0.5789   64.1611 H       1  ZINC000508782983    0.1700
     49 H49       -10.0044    1.2767   63.8810 H       1  ZINC000508782983    0.1800
     50 H50        -8.6223    0.5489   61.8156 H       1  ZINC000508782983    0.4200
     51 H51        -9.9837    0.0977   58.8517 H       1  ZINC000508782983    0.1100
     52 H52        -9.2291   -1.1643   57.8477 H       1  ZINC000508782983    0.0400
     53 H53       -11.0634   -0.1697   56.5866 H       1  ZINC000508782983    0.1000
     54 H54       -12.1893   -0.4389   57.9431 H       1  ZINC000508782983    0.0800
@<TRIPOS>BOND
     1     1     2    1
     2     1    28    1
     3     1    29    1
     4     1    30    1
     5     2     3    1
     6     2     4    1
     7     2    31    1
     8     3    32    1
     9     3    33    1
    10     3    34    1
    11     4     5    1
    12     4    35    1
    13     4    36    1
    14     5     9    1
    15     5     6    1
    16     6     7    2
    17     6    37    1
    18     7     8    1
    19     7    38    1
    20     8     9    2
    21     9    10    1
    22    10    11    1
    23    10    39    1
    24    10    40    1
    25    11    12   am
    26    11    41    1
    27    12    13    2
    28    12    14    1
    29    14    15    2
    30    14    16   am
    31    16    27    1
    32    16    17    1
    33    17    18    1
    34    17    42    1
    35    17    43    1
    36    18    19    1
    37    18    44    1
    38    18    45    1
    39    19    20    1
    40    19    26    1
    41    20    21    1
    42    20    46    1
    43    20    47    1
    44    21    25    1
    45    21    22    2
    46    22    23    1
    47    23    24    2
    48    23    48    1
    49    24    25    1
    50    24    49    1
    51    25    50    1
    52    26    27    1
    53    26    51    1
    54    26    52    1
    55    27    53    1
    56    27    54    1
@<TRIPOS>SUBSTRUCTURE
     1 ZINC000508782983        1 TEMP              0 ****  ****    0 ROOT


##########                                Name:    ZINC001127302705
##########                DOCK_Rotatable_Bonds:                   9
##########                         Heavy_Atoms:                  28
##########                    Molecular_Weight:             398.892
##########                DOCK_Rotatable_Bonds:                   9
##########                       Formal_Charge:          -0.0200002
##########                     HBond_Acceptors:                   7
##########                        HBond_Donors:                   1
##########                         Heavy_Atoms:                  28
##########                          Grid_Score:          -34.103729
##########                     Grid_vdw_energy:          -34.069195
##########                      Grid_es_energy:           -0.034536
##########           Internal_energy_repulsive:           28.649893

@<TRIPOS>MOLECULE
ZINC001127302705
 51 53 1 0 0
SMALL
USER_CHARGES


@<TRIPOS>ATOM
      1 C1         -9.7521   -0.6453   61.4960 C.3     1  ZINC001127302705   -0.1500
      2 C2         -9.8204   -2.1317   61.1393 C.3     1  ZINC001127302705   -0.1400
      3 C3        -10.8803   -2.3484   60.0574 C.3     1  ZINC001127302705    0.1800
      4 C4        -10.6264   -3.6836   59.3549 C.3     1  ZINC001127302705   -0.1600
      5 C5        -12.2688   -2.3660   60.6999 C.3     1  ZINC001127302705    0.0700
      6 O6        -13.2564   -2.5970   59.6933 O.3     1  ZINC001127302705   -0.2800
      7 C7        -14.5525   -2.6153   60.0947 C.ar    1  ZINC001127302705    0.3400
      8 N8        -14.8856   -2.0811   61.2574 N.ar    1  ZINC001127302705   -0.5300
      9 C9        -16.1340   -2.0770   61.6856 C.ar    1  ZINC001127302705    0.1400
     10 C10       -17.1442   -2.6353   60.9283 C.ar    1  ZINC001127302705   -0.2000
     11 C11       -16.8367   -3.2066   59.7011 C.ar    1  ZINC001127302705   -0.0300
     12 C12       -15.5187   -3.1903   59.2768 C.ar    1  ZINC001127302705   -0.1100
     13 Cl13      -15.0767   -3.8901   57.7509 Cl      1  ZINC001127302705   -0.0400
     14 N14       -10.8089   -1.2604   59.0789 N.am    1  ZINC001127302705   -0.7100
     15 C15        -9.6555   -1.0162   58.4257 C.2     1  ZINC001127302705    0.6200
     16 O16        -8.6748   -1.6997   58.6474 O.2     1  ZINC001127302705   -0.5200
     17 C17        -9.5829    0.0818   57.4404 C.2     1  ZINC001127302705   -0.0200
     18 N18        -8.5230    0.4430   56.7450 N.2     1  ZINC001127302705   -0.2500
     19 N19        -8.8131    1.4352   55.9822 N.pl3   1  ZINC001127302705   -0.2800
     20 C20        -7.8744    2.0936   55.0705 C.3     1  ZINC001127302705    0.1600
     21 C21        -7.7505    1.2834   53.8059 C.ar    1  ZINC001127302705   -0.1200
     22 C22        -8.8484    0.6073   53.3078 C.ar    1  ZINC001127302705   -0.1000
     23 C23        -8.7347   -0.1359   52.1478 C.ar    1  ZINC001127302705   -0.1200
     24 C24        -7.5231   -0.2027   51.4857 C.ar    1  ZINC001127302705   -0.1100
     25 C25        -6.4253    0.4742   51.9833 C.ar    1  ZINC001127302705   -0.1200
     26 C26        -6.5402    1.2209   53.1410 C.ar    1  ZINC001127302705   -0.0800
     27 C27       -10.1080    1.7837   56.1416 C.2     1  ZINC001127302705   -0.0200
     28 C28       -10.6397    0.9421   57.0589 C.2     1  ZINC001127302705   -0.1800
     29 H29       -10.7226   -0.3157   61.8669 H       1  ZINC001127302705    0.0500
     30 H30        -8.9970   -0.4910   62.2666 H       1  ZINC001127302705    0.0600
     31 H31        -9.4881   -0.0705   60.6083 H       1  ZINC001127302705    0.0500
     32 H32        -8.8499   -2.4612   60.7683 H       1  ZINC001127302705    0.0900
     33 H33       -10.0844   -2.7066   62.0269 H       1  ZINC001127302705    0.0800
     34 H34       -10.6795   -4.4931   60.0830 H       1  ZINC001127302705    0.0700
     35 H35       -11.3815   -3.8380   58.5841 H       1  ZINC001127302705    0.0500
     36 H36        -9.6372   -3.6710   58.8971 H       1  ZINC001127302705    0.0800
     37 H37       -12.3149   -3.1615   61.4436 H       1  ZINC001127302705    0.0800
     38 H38       -12.4584   -1.4069   61.1816 H       1  ZINC001127302705    0.0700
     39 H39       -16.3683   -1.6312   62.6411 H       1  ZINC001127302705    0.1700
     40 H40       -18.1628   -2.6279   61.2870 H       1  ZINC001127302705    0.1500
     41 H41       -17.6084   -3.6501   59.0893 H       1  ZINC001127302705    0.1500
     42 H42       -11.5915   -0.7159   58.9011 H       1  ZINC001127302705    0.4100
     43 H43        -8.2416    3.0909   54.8287 H       1  ZINC001127302705    0.1000
     44 H44        -6.8980    2.1721   55.5488 H       1  ZINC001127302705    0.1100
     45 H45        -9.7951    0.6595   53.8251 H       1  ZINC001127302705    0.1200
     46 H46        -9.5925   -0.6647   51.7590 H       1  ZINC001127302705    0.1300
     47 H47        -7.4341   -0.7839   50.5798 H       1  ZINC001127302705    0.1200
     48 H48        -5.4786    0.4217   51.4662 H       1  ZINC001127302705    0.1300
     49 H49        -5.6825    1.7496   53.5298 H       1  ZINC001127302705    0.1300
     50 H50       -10.6244    2.5819   55.6292 H       1  ZINC001127302705    0.1800
     51 H51       -11.6548    0.9337   57.4274 H       1  ZINC001127302705    0.1600
@<TRIPOS>BOND
     1     1     2    1
     2     1    29    1
     3     1    30    1
     4     1    31    1
     5     2     3    1
     6     2    32    1
     7     2    33    1
     8     3     4    1
     9     3     5    1
    10     3    14    1
    11     4    34    1
    12     4    35    1
    13     4    36    1
    14     5     6    1
    15     5    37    1
    16     5    38    1
    17     6     7    1
    18     7    12   ar
    19     7     8   ar
    20     8     9   ar
    21     9    10   ar
    22     9    39    1
    23    10    11   ar
    24    10    40    1
    25    11    12   ar
    26    11    41    1
    27    12    13    1
    28    14    15   am
    29    14    42    1
    30    15    16    2
    31    15    17    1
    32    17    28    1
    33    17    18    2
    34    18    19    1
    35    19    20    1
    36    19    27    1
    37    20    21    1
    38    20    43    1
    39    20    44    1
    40    21    26   ar
    41    21    22   ar
    42    22    23   ar
    43    22    45    1
    44    23    24   ar
    45    23    46    1
    46    24    25   ar
    47    24    47    1
    48    25    26   ar
    49    25    48    1
    50    26    49    1
    51    27    28    2
    52    27    50    1
    53    28    51    1
@<TRIPOS>SUBSTRUCTURE
     1 ZINC001127302705        1 TEMP              0 ****  ****    0 ROOT


##########                                Name:    ZINC000467185792
##########                DOCK_Rotatable_Bonds:                   9
##########                         Heavy_Atoms:                  29
##########                    Molecular_Weight:             412.513
##########                DOCK_Rotatable_Bonds:                   9
##########                       Formal_Charge:                0.04
##########                     HBond_Acceptors:                   8
##########                        HBond_Donors:                   2
##########                         Heavy_Atoms:                  29
##########                          Grid_Score:          -34.099655
##########                     Grid_vdw_energy:          -33.129749
##########                      Grid_es_energy:           -0.969906
##########           Internal_energy_repulsive:           23.182878

@<TRIPOS>MOLECULE
ZINC000467185792
 53 55 1 0 0
SMALL
USER_CHARGES


@<TRIPOS>ATOM
      1 C1        -17.7141   -8.5169   51.2812 C.3     1  ZINC000467185792   -0.1500
      2 C2        -16.8203   -8.7409   52.5026 C.3     1  ZINC000467185792   -0.1200
      3 C3        -16.6077   -7.4114   53.2296 C.3     1  ZINC000467185792    0.0600
      4 O4        -15.7725   -7.6205   54.3701 O.3     1  ZINC000467185792   -0.3100
      5 C5        -15.4836   -6.5322   55.1312 C.ar    1  ZINC000467185792    0.1400
      6 C6        -14.6162   -6.6510   56.2084 C.ar    1  ZINC000467185792   -0.2100
      7 C7        -14.3206   -5.5483   56.9825 C.ar    1  ZINC000467185792   -0.0400
      8 C8        -14.8939   -4.3137   56.6821 C.ar    1  ZINC000467185792   -0.0600
      9 C9        -14.5777   -3.1257   57.5122 C.2     1  ZINC000467185792    0.1400
     10 C10       -15.1242   -1.9193   57.2781 C.2     1  ZINC000467185792   -0.3000
     11 S11       -14.4964   -0.7885   58.4751 S.3     1  ZINC000467185792    0.2000
     12 C12       -13.5364   -2.0794   59.1918 C.2     1  ZINC000467185792    0.2800
     13 N13       -12.6956   -1.9404   60.2876 N.am    1  ZINC000467185792   -0.6100
     14 C14       -11.8312   -0.9080   60.3472 C.2     1  ZINC000467185792    0.5900
     15 O15       -11.7880   -0.0982   59.4409 O.2     1  ZINC000467185792   -0.4900
     16 C16       -10.9388   -0.7605   61.5104 C.2     1  ZINC000467185792   -0.2400
     17 C17       -11.2742    0.0673   62.5799 C.2     1  ZINC000467185792    0.0800
     18 C18       -12.5661    0.8432   62.5851 C.3     1  ZINC000467185792   -0.1200
     19 C19       -13.6825   -0.0288   63.1632 C.3     1  ZINC000467185792   -0.1400
     20 C20       -10.3754    0.1564   63.6499 C.2     1  ZINC000467185792    0.0600
     21 C21       -10.7005    1.0401   64.8266 C.3     1  ZINC000467185792   -0.0600
     22 C22        -9.5246    1.0389   65.8054 C.3     1  ZINC000467185792   -0.1500
     23 N23        -9.2588   -0.5194   63.6375 N.2     1  ZINC000467185792   -0.1800
     24 N24        -8.9194   -1.2899   62.6699 N.am    1  ZINC000467185792   -0.4300
     25 C25        -9.7029   -1.4627   61.5882 C.2     1  ZINC000467185792    0.5000
     26 O26        -9.3539   -2.2015   60.6837 O.2     1  ZINC000467185792   -0.5300
     27 N27       -13.7415   -3.1814   58.5391 N.2     1  ZINC000467185792   -0.5000
     28 C28       -15.7646   -4.1978   55.5997 C.ar    1  ZINC000467185792   -0.0600
     29 C29       -16.0520   -5.3031   54.8263 C.ar    1  ZINC000467185792   -0.1500
     30 H30       -17.2364   -7.8062   50.6068 H       1  ZINC000467185792    0.0600
     31 H31       -17.8655   -9.4639   50.7632 H       1  ZINC000467185792    0.0700
     32 H32       -18.6771   -8.1209   51.6033 H       1  ZINC000467185792    0.0600
     33 H33       -17.2981   -9.4514   53.1770 H       1  ZINC000467185792    0.0700
     34 H34       -15.8573   -9.1368   52.1803 H       1  ZINC000467185792    0.0700
     35 H35       -16.1304   -6.7006   52.5550 H       1  ZINC000467185792    0.0600
     36 H36       -17.5708   -7.0157   53.5522 H       1  ZINC000467185792    0.0600
     37 H37       -14.1727   -7.6078   56.4408 H       1  ZINC000467185792    0.1300
     38 H38       -13.6459   -5.6414   57.8207 H       1  ZINC000467185792    0.1300
     39 H39       -15.8264   -1.6839   56.4921 H       1  ZINC000467185792    0.1800
     40 H40       -12.7302   -2.5863   61.0105 H       1  ZINC000467185792    0.4400
     41 H41       -12.4502    1.7379   63.1969 H       1  ZINC000467185792    0.0900
     42 H42       -12.8213    1.1310   61.5651 H       1  ZINC000467185792    0.1300
     43 H43       -13.7985   -0.9235   62.5514 H       1  ZINC000467185792    0.0600
     44 H44       -13.4274   -0.3166   64.1832 H       1  ZINC000467185792    0.0600
     45 H45       -14.6169    0.5324   63.1670 H       1  ZINC000467185792    0.0700
     46 H46       -10.8822    2.0568   64.4781 H       1  ZINC000467185792    0.1000
     47 H47       -11.5916    0.6634   65.3287 H       1  ZINC000467185792    0.1000
     48 H48        -9.7597    1.6782   66.6564 H       1  ZINC000467185792    0.0600
     49 H49        -9.3429    0.0223   66.1538 H       1  ZINC000467185792    0.0600
     50 H50        -8.6335    1.4157   65.3033 H       1  ZINC000467185792    0.0600
     51 H51        -8.0754   -1.7654   62.7206 H       1  ZINC000467185792    0.4500
     52 H52       -16.2106   -3.2427   55.3646 H       1  ZINC000467185792    0.1300
     53 H53       -16.7262   -5.2138   53.9874 H       1  ZINC000467185792    0.1400
@<TRIPOS>BOND
     1     1     2    1
     2     1    30    1
     3     1    31    1
     4     1    32    1
     5     2     3    1
     6     2    33    1
     7     2    34    1
     8     3     4    1
     9     3    35    1
    10     3    36    1
    11     4     5    1
    12     5    29   ar
    13     5     6   ar
    14     6     7   ar
    15     6    37    1
    16     7     8   ar
    17     7    38    1
    18     8     9    1
    19     8    28   ar
    20     9    27    1
    21     9    10    2
    22    10    11    1
    23    10    39    1
    24    11    12    1
    25    12    13    1
    26    12    27    2
    27    13    14   am
    28    13    40    1
    29    14    15    2
    30    14    16    1
    31    16    25    1
    32    16    17    2
    33    17    18    1
    34    17    20    1
    35    18    19    1
    36    18    41    1
    37    18    42    1
    38    19    43    1
    39    19    44    1
    40    19    45    1
    41    20    21    1
    42    20    23    2
    43    21    22    1
    44    21    46    1
    45    21    47    1
    46    22    48    1
    47    22    49    1
    48    22    50    1
    49    23    24    1
    50    24    25   am
    51    24    51    1
    52    25    26    2
    53    28    29   ar
    54    28    52    1
    55    29    53    1
@<TRIPOS>SUBSTRUCTURE
     1 ZINC000467185792        1 TEMP              0 ****  ****    0 ROOT


##########                                Name:    ZINC000434204837
##########                DOCK_Rotatable_Bonds:                   7
##########                         Heavy_Atoms:                  29
##########                    Molecular_Weight:             406.511
##########                DOCK_Rotatable_Bonds:                   7
##########                       Formal_Charge:          -0.0200002
##########                     HBond_Acceptors:                   8
##########                        HBond_Donors:                   0
##########                         Heavy_Atoms:                  29
##########                          Grid_Score:          -34.097218
##########                     Grid_vdw_energy:          -33.193897
##########                      Grid_es_energy:           -0.903319
##########           Internal_energy_repulsive:           15.209684

@<TRIPOS>MOLECULE
ZINC000434204837
 51 54 1 0 0
SMALL
USER_CHARGES


@<TRIPOS>ATOM
      1 C1          2.1627    3.0611   58.2703 C.3     1  ZINC000434204837   -0.1300
      2 C2          0.7058    2.7255   58.0805 C.ar    1  ZINC000434204837   -0.0700
      3 C3          0.1380    1.6853   58.7915 C.ar    1  ZINC000434204837   -0.1200
      4 C4         -1.1987    1.3774   58.6173 C.ar    1  ZINC000434204837   -0.1100
      5 C5         -1.9670    2.1101   57.7323 C.ar    1  ZINC000434204837   -0.1300
      6 C6         -1.3991    3.1513   57.0217 C.ar    1  ZINC000434204837   -0.0900
      7 C7         -0.0640    3.4619   57.1991 C.ar    1  ZINC000434204837   -0.1000
      8 C8          0.5550    4.5967   56.4245 C.3     1  ZINC000434204837    0.0100
      9 C9          0.9896    4.1017   55.0692 C.2     1  ZINC000434204837    0.2000
     10 N10         0.2605    4.0669   53.9798 N.2     1  ZINC000434204837   -0.4600
     11 C11         1.0580    3.5531   53.0265 C.2     1  ZINC000434204837    0.1700
     12 C12         0.6845    3.3090   51.5871 C.3     1  ZINC000434204837   -0.0300
     13 S13        -0.5351    4.5397   51.0633 S.3     1  ZINC000434204837    0.0900
     14 C14        -2.0171    3.6094   51.2707 C.2     1  ZINC000434204837    0.2100
     15 N15        -2.8962    3.7446   52.2401 N.2     1  ZINC000434204837   -0.3300
     16 N16        -3.8610    2.9101   52.0922 N.2     1  ZINC000434204837   -0.0200
     17 N17        -3.6762    2.1917   51.0381 N.2     1  ZINC000434204837   -0.0700
     18 N18        -2.4703    2.6222   50.4576 N.pl3   1  ZINC000434204837   -0.3100
     19 C19        -1.8625    2.1314   49.2933 C.ar    1  ZINC000434204837    0.1100
     20 C20        -1.4976    0.7945   49.2096 C.ar    1  ZINC000434204837   -0.1100
     21 C21        -0.8994    0.3138   48.0612 C.ar    1  ZINC000434204837   -0.0900
     22 C22        -0.6635    1.1629   46.9956 C.ar    1  ZINC000434204837   -0.0600
     23 C23        -0.0106    0.6352   45.7440 C.3     1  ZINC000434204837   -0.0600
     24 C24         1.2368   -0.1675   46.1190 C.3     1  ZINC000434204837   -0.1500
     25 C25        -0.9940   -0.2692   44.9983 C.3     1  ZINC000434204837   -0.1500
     26 C26        -1.0257    2.4950   47.0759 C.ar    1  ZINC000434204837   -0.1000
     27 C27        -1.6294    2.9801   48.2196 C.ar    1  ZINC000434204837   -0.0900
     28 N28         2.2101    3.3062   53.5746 N.2     1  ZINC000434204837   -0.3600
     29 O29         2.1934    3.6195   54.7463 O.3     1  ZINC000434204837    0.0900
     30 H30         2.2659    3.7900   59.0741 H       1  ZINC000434204837    0.0800
     31 H31         2.7135    2.1563   58.5275 H       1  ZINC000434204837    0.0700
     32 H32         2.5625    3.4797   57.3467 H       1  ZINC000434204837    0.0700
     33 H33         0.7383    1.1127   59.4830 H       1  ZINC000434204837    0.1300
     34 H34        -1.6422    0.5640   59.1724 H       1  ZINC000434204837    0.1200
     35 H35        -3.0108    1.8692   57.5957 H       1  ZINC000434204837    0.1300
     36 H36        -1.9993    3.7236   56.3300 H       1  ZINC000434204837    0.1300
     37 H37        -0.1771    5.3950   56.3023 H       1  ZINC000434204837    0.1200
     38 H38         1.4205    4.9774   56.9669 H       1  ZINC000434204837    0.1200
     39 H39         1.5738    3.3900   50.9621 H       1  ZINC000434204837    0.1300
     40 H40         0.2592    2.3105   51.4865 H       1  ZINC000434204837    0.1400
     41 H41        -1.6811    0.1311   50.0419 H       1  ZINC000434204837    0.1400
     42 H42        -0.6154   -0.7260   47.9956 H       1  ZINC000434204837    0.1400
     43 H43         0.2734    1.4697   45.1029 H       1  ZINC000434204837    0.0800
     44 H44         0.9527   -1.0020   46.7601 H       1  ZINC000434204837    0.0600
     45 H45         1.7090   -0.5491   45.2137 H       1  ZINC000434204837    0.0600
     46 H46         1.9374    0.4768   46.6503 H       1  ZINC000434204837    0.0600
     47 H47        -1.8827    0.3027   44.7312 H       1  ZINC000434204837    0.0600
     48 H48        -0.5218   -0.6508   44.0931 H       1  ZINC000434204837    0.0600
     49 H49        -1.2780   -1.1036   45.6394 H       1  ZINC000434204837    0.0600
     50 H50        -0.8398    3.1558   46.2421 H       1  ZINC000434204837    0.1400
     51 H51        -1.9121    4.0206   48.2817 H       1  ZINC000434204837    0.1400
@<TRIPOS>BOND
     1     1     2    1
     2     1    30    1
     3     1    31    1
     4     1    32    1
     5     2     7   ar
     6     2     3   ar
     7     3     4   ar
     8     3    33    1
     9     4     5   ar
    10     4    34    1
    11     5     6   ar
    12     5    35    1
    13     6     7   ar
    14     6    36    1
    15     7     8    1
    16     8     9    1
    17     8    37    1
    18     8    38    1
    19     9    29    1
    20     9    10    2
    21    10    11    1
    22    11    12    1
    23    11    28    2
    24    12    13    1
    25    12    39    1
    26    12    40    1
    27    13    14    1
    28    14    18    1
    29    14    15    2
    30    15    16    1
    31    16    17    2
    32    17    18    1
    33    18    19    1
    34    19    27   ar
    35    19    20   ar
    36    20    21   ar
    37    20    41    1
    38    21    22   ar
    39    21    42    1
    40    22    23    1
    41    22    26   ar
    42    23    24    1
    43    23    25    1
    44    23    43    1
    45    24    44    1
    46    24    45    1
    47    24    46    1
    48    25    47    1
    49    25    48    1
    50    25    49    1
    51    26    27   ar
    52    26    50    1
    53    27    51    1
    54    28    29    1
@<TRIPOS>SUBSTRUCTURE
     1 ZINC000434204837        1 TEMP              0 ****  ****    0 ROOT


##########                                Name:    ZINC000767361237
##########                DOCK_Rotatable_Bonds:                  10
##########                         Heavy_Atoms:                  30
##########                    Molecular_Weight:             409.439
##########                DOCK_Rotatable_Bonds:                  10
##########                       Formal_Charge:          -0.0300005
##########                     HBond_Acceptors:                   7
##########                        HBond_Donors:                   1
##########                         Heavy_Atoms:                  30
##########                          Grid_Score:          -34.051003
##########                     Grid_vdw_energy:          -32.614269
##########                      Grid_es_energy:           -1.436734
##########           Internal_energy_repulsive:           19.215302

@<TRIPOS>MOLECULE
ZINC000767361237
 53 55 1 0 0
SMALL
USER_CHARGES


@<TRIPOS>ATOM
      1 C1        -11.9684    4.5795   66.5280 C.3     1  ZINC000767361237   -0.1200
      2 C2        -11.5739    3.3238   65.7940 C.ar    1  ZINC000767361237   -0.0900
      3 C3        -10.2457    2.9451   65.7365 C.ar    1  ZINC000767361237   -0.1200
      4 C4         -9.8839    1.7933   65.0633 C.ar    1  ZINC000767361237   -0.1100
      5 C5        -10.8503    1.0200   64.4477 C.ar    1  ZINC000767361237   -0.0800
      6 C6        -10.4557   -0.2354   63.7134 C.3     1  ZINC000767361237   -0.0800
      7 H7        -11.2719   -0.9562   63.7616 H       1  ZINC000767361237    0.0900
      8 C8         -9.2068   -0.8349   64.3627 C.3     1  ZINC000767361237   -0.1500
      9 C9        -10.1584    0.1013   62.2508 C.3     1  ZINC000767361237    0.1300
     10 H10        -9.1953    0.6074   62.1830 H       1  ZINC000767361237    0.1400
     11 O11       -11.1831    0.9571   61.7413 O.3     1  ZINC000767361237   -0.5200
     12 C12       -10.1164   -1.1692   61.4414 C.2     1  ZINC000767361237    0.4300
     13 O13       -10.9362   -2.0356   61.6340 O.2     1  ZINC000767361237   -0.5000
     14 O14        -9.1682   -1.3382   60.5064 O.3     1  ZINC000767361237   -0.3300
     15 C15        -9.2531   -2.5363   59.6905 C.3     1  ZINC000767361237    0.0100
     16 C16        -9.7262   -2.1698   58.3075 C.2     1  ZINC000767361237    0.3700
     17 O17        -9.3921   -1.1197   57.8136 O.2     1  ZINC000767361237   -0.4200
     18 C18       -10.6163   -3.1137   57.5408 C.3     1  ZINC000767361237   -0.1800
     19 C19       -12.0151   -3.1125   58.1608 C.3     1  ZINC000767361237    0.1200
     20 N20       -12.9314   -3.8645   57.3000 N.am    1  ZINC000767361237   -0.5800
     21 C21       -13.7678   -3.3056   56.4068 C.2     1  ZINC000767361237    0.5700
     22 O22       -13.8811   -2.1161   56.1896 O.2     1  ZINC000767361237   -0.4600
     23 C23       -14.5252   -4.3816   55.7333 C.ar    1  ZINC000767361237   -0.1400
     24 C24       -15.5007   -4.4087   54.7502 C.ar    1  ZINC000767361237   -0.0400
     25 C25       -16.0197   -5.6239   54.3301 C.ar    1  ZINC000767361237   -0.0900
     26 C26       -15.5704   -6.8069   54.8854 C.ar    1  ZINC000767361237   -0.0900
     27 C27       -14.5946   -6.7952   55.8702 C.ar    1  ZINC000767361237   -0.0400
     28 C28       -14.0669   -5.5885   56.2998 C.ar    1  ZINC000767361237   -0.1400
     29 C29       -13.0431   -5.2051   57.2946 C.2     1  ZINC000767361237    0.5700
     30 O30       -12.4099   -5.9719   57.9919 O.2     1  ZINC000767361237   -0.4600
     31 C31       -12.1787    1.3979   64.5063 C.ar    1  ZINC000767361237   -0.1100
     32 C32       -12.5410    2.5477   65.1829 C.ar    1  ZINC000767361237   -0.1200
     33 H33       -12.1762    4.3406   67.5710 H       1  ZINC000767361237    0.0700
     34 H34       -11.1538    5.3019   66.4760 H       1  ZINC000767361237    0.0700
     35 H35       -12.8607    5.0042   66.0679 H       1  ZINC000767361237    0.0700
     36 H36        -9.4907    3.5493   66.2175 H       1  ZINC000767361237    0.1200
     37 H37        -8.8460    1.4979   65.0179 H       1  ZINC000767361237    0.1200
     38 H38        -8.9214   -1.7430   63.8316 H       1  ZINC000767361237    0.0800
     39 H39        -8.3906   -0.1140   64.3145 H       1  ZINC000767361237    0.0700
     40 H40        -9.4186   -1.0748   65.4048 H       1  ZINC000767361237    0.0600
     41 H41       -11.2673    1.7955   62.2157 H       1  ZINC000767361237    0.3900
     42 H42        -8.2700   -3.0028   59.6266 H       1  ZINC000767361237    0.1100
     43 H43        -9.9578   -3.2344   60.1425 H       1  ZINC000767361237    0.1100
     44 H44       -10.6792   -2.7905   56.5018 H       1  ZINC000767361237    0.1100
     45 H45       -10.2007   -4.1205   57.5837 H       1  ZINC000767361237    0.1100
     46 H46       -11.9766   -3.5786   59.1453 H       1  ZINC000767361237    0.1100
     47 H47       -12.3683   -2.0860   58.2584 H       1  ZINC000767361237    0.1100
     48 H48       -15.8557   -3.4872   54.3129 H       1  ZINC000767361237    0.1400
     49 H49       -16.7804   -5.6460   53.5639 H       1  ZINC000767361237    0.1400
     50 H50       -15.9826   -7.7472   54.5501 H       1  ZINC000767361237    0.1400
     51 H51       -14.2470   -7.7228   56.3003 H       1  ZINC000767361237    0.1400
     52 H52       -12.9337    0.7935   64.0258 H       1  ZINC000767361237    0.1200
     53 H53       -13.5788    2.8430   65.2286 H       1  ZINC000767361237    0.1200
@<TRIPOS>BOND
     1     1     2    1
     2     1    33    1
     3     1    34    1
     4     1    35    1
     5     2    32   ar
     6     2     3   ar
     7     3     4   ar
     8     3    36    1
     9     4     5   ar
    10     4    37    1
    11     5     6    1
    12     5    31   ar
    13     6     7    1
    14     6     8    1
    15     6     9    1
    16     8    38    1
    17     8    39    1
    18     8    40    1
    19     9    10    1
    20     9    11    1
    21     9    12    1
    22    11    41    1
    23    12    13    2
    24    12    14    1
    25    14    15    1
    26    15    16    1
    27    15    42    1
    28    15    43    1
    29    16    17    2
    30    16    18    1
    31    18    19    1
    32    18    44    1
    33    18    45    1
    34    19    20    1
    35    19    46    1
    36    19    47    1
    37    20    29   am
    38    20    21   am
    39    21    22    2
    40    21    23    1
    41    23    28   ar
    42    23    24   ar
    43    24    25   ar
    44    24    48    1
    45    25    26   ar
    46    25    49    1
    47    26    27   ar
    48    26    50    1
    49    27    28   ar
    50    27    51    1
    51    28    29    1
    52    29    30    2
    53    31    32   ar
    54    31    52    1
    55    32    53    1
@<TRIPOS>SUBSTRUCTURE
     1 ZINC000767361237        1 TEMP              0 ****  ****    0 ROOT


##########                                Name:    ZINC000892249927
##########                DOCK_Rotatable_Bonds:                   8
##########                         Heavy_Atoms:                  27
##########                    Molecular_Weight:             364.487
##########                DOCK_Rotatable_Bonds:                   8
##########                       Formal_Charge:          -0.0300015
##########                     HBond_Acceptors:                   4
##########                        HBond_Donors:                   1
##########                         Heavy_Atoms:                  27
##########                          Grid_Score:          -33.930588
##########                     Grid_vdw_energy:          -33.462414
##########                      Grid_es_energy:           -0.468173
##########           Internal_energy_repulsive:           15.257599

@<TRIPOS>MOLECULE
ZINC000892249927
 55 58 1 0 0
SMALL
USER_CHARGES


@<TRIPOS>ATOM
      1 O1        -11.2898   -2.9672   56.4459 O.2     1  ZINC000892249927   -0.5300
      2 C2        -11.9271   -3.2158   57.4473 C.2     1  ZINC000892249927    0.5100
      3 C3        -12.9700   -4.3035   57.4260 C.3     1  ZINC000892249927   -0.1400
      4 C4        -13.7707   -4.2170   56.1251 C.3     1  ZINC000892249927   -0.1000
      5 C5        -14.7041   -5.4247   56.0195 C.3     1  ZINC000892249927   -0.0800
      6 C6        -15.3000   -5.4795   54.6363 C.ar    1  ZINC000892249927   -0.0900
      7 C7        -15.9360   -4.3693   54.1133 C.ar    1  ZINC000892249927   -0.1100
      8 C8        -16.4827   -4.4196   52.8445 C.ar    1  ZINC000892249927   -0.1100
      9 C9        -16.3927   -5.5800   52.0987 C.ar    1  ZINC000892249927   -0.0500
     10 C10       -16.9891   -5.6350   50.7158 C.3     1  ZINC000892249927   -0.1200
     11 C11       -17.3136   -7.0152   50.1409 C.3     1  ZINC000892249927   -0.1800
     12 C12       -18.4449   -6.0889   50.5919 C.3     1  ZINC000892249927   -0.1700
     13 C13       -15.7554   -6.6898   52.6213 C.ar    1  ZINC000892249927   -0.1200
     14 C14       -15.2054   -6.6382   53.8885 C.ar    1  ZINC000892249927   -0.1100
     15 N15       -11.6989   -2.5232   58.5808 N.am    1  ZINC000892249927   -0.7300
     16 C16       -10.6850   -1.4660   58.6014 C.3     1  ZINC000892249927    0.1400
     17 H17       -10.8256   -0.8091   57.7430 H       1  ZINC000892249927    0.1000
     18 C18        -9.2890   -2.0934   58.5433 C.3     1  ZINC000892249927   -0.1700
     19 C19        -9.0722   -2.9534   59.7913 C.3     1  ZINC000892249927    0.0600
     20 O20        -9.2381   -2.1464   60.9589 O.3     1  ZINC000892249927   -0.3700
     21 C21       -10.5398   -1.5717   61.0909 C.3     1  ZINC000892249927    0.1400
     22 H22       -11.2862   -2.3654   61.1207 H       1  ZINC000892249927    0.0700
     23 C23       -10.6081   -0.7693   62.3647 C.ar    1  ZINC000892249927   -0.1400
     24 C24        -9.4460   -0.3448   62.9900 C.ar    1  ZINC000892249927   -0.0700
     25 C25        -9.5570    0.3915   64.1599 C.ar    1  ZINC000892249927   -0.1700
     26 C26       -10.8135    0.6757   64.6599 C.ar    1  ZINC000892249927    0.1000
     27 N27       -11.8980    0.2555   64.0379 N.ar    1  ZINC000892249927   -0.4900
     28 C28       -11.8304   -0.4421   62.9211 C.ar    1  ZINC000892249927    0.1300
     29 C29       -10.8169   -0.6548   59.8941 C.3     1  ZINC000892249927   -0.1500
     30 H30       -12.4820   -5.2762   57.4882 H       1  ZINC000892249927    0.0900
     31 H31       -13.6421   -4.1792   58.2752 H       1  ZINC000892249927    0.0900
     32 H32       -14.3606   -3.3004   56.1218 H       1  ZINC000892249927    0.0700
     33 H33       -13.0862   -4.2115   55.2769 H       1  ZINC000892249927    0.0700
     34 H34       -14.1396   -6.3378   56.2083 H       1  ZINC000892249927    0.0700
     35 H35       -15.5026   -5.3322   56.7556 H       1  ZINC000892249927    0.0700
     36 H36       -16.0063   -3.4626   54.6959 H       1  ZINC000892249927    0.1200
     37 H37       -16.9803   -3.5524   52.4361 H       1  ZINC000892249927    0.1200
     38 H38       -16.6395   -4.8701   50.0224 H       1  ZINC000892249927    0.1100
     39 H39       -17.1776   -7.1585   49.0690 H       1  ZINC000892249927    0.1000
     40 H40       -17.0959   -7.8835   50.7629 H       1  ZINC000892249927    0.1000
     41 H41       -18.9713   -6.3478   51.5104 H       1  ZINC000892249927    0.1000
     42 H42       -19.0530   -5.6230   49.8165 H       1  ZINC000892249927    0.1000
     43 H43       -15.6848   -7.5963   52.0385 H       1  ZINC000892249927    0.1200
     44 H44       -14.7075   -7.5053   54.2967 H       1  ZINC000892249927    0.1200
     45 H45       -12.2059   -2.7248   59.3828 H       1  ZINC000892249927    0.4000
     46 H46        -9.2064   -2.7166   57.6528 H       1  ZINC000892249927    0.0800
     47 H47        -8.5365   -1.3056   58.5088 H       1  ZINC000892249927    0.0800
     48 H48        -9.7995   -3.7651   59.8042 H       1  ZINC000892249927    0.0500
     49 H49        -8.0643   -3.3682   59.7763 H       1  ZINC000892249927    0.1000
     50 H50        -8.4771   -0.5824   62.5762 H       1  ZINC000892249927    0.1300
     51 H51        -8.6727    0.7380   64.6739 H       1  ZINC000892249927    0.1400
     52 H52       -10.9086    1.2483   65.5706 H       1  ZINC000892249927    0.1600
     53 H53       -12.7405   -0.7691   62.4401 H       1  ZINC000892249927    0.1600
     54 H54       -10.0956    0.1625   59.8866 H       1  ZINC000892249927    0.0900
     55 H55       -11.8262   -0.2504   59.9712 H       1  ZINC000892249927    0.0800
@<TRIPOS>BOND
     1     1     2    2
     2     2     3    1
     3     2    15   am
     4     3     4    1
     5     3    30    1
     6     3    31    1
     7     4     5    1
     8     4    32    1
     9     4    33    1
    10     5     6    1
    11     5    34    1
    12     5    35    1
    13     6    14   ar
    14     6     7   ar
    15     7     8   ar
    16     7    36    1
    17     8     9   ar
    18     8    37    1
    19     9    10    1
    20     9    13   ar
    21    10    12    1
    22    10    11    1
    23    10    38    1
    24    11    12    1
    25    11    39    1
    26    11    40    1
    27    12    41    1
    28    12    42    1
    29    13    14   ar
    30    13    43    1
    31    14    44    1
    32    15    16    1
    33    15    45    1
    34    16    17    1
    35    16    29    1
    36    16    18    1
    37    18    19    1
    38    18    46    1
    39    18    47    1
    40    19    20    1
    41    19    48    1
    42    19    49    1
    43    20    21    1
    44    21    22    1
    45    21    23    1
    46    21    29    1
    47    23    28   ar
    48    23    24   ar
    49    24    25   ar
    50    24    50    1
    51    25    26   ar
    52    25    51    1
    53    26    27   ar
    54    26    52    1
    55    27    28   ar
    56    28    53    1
    57    29    54    1
    58    29    55    1
@<TRIPOS>SUBSTRUCTURE
     1 ZINC000892249927        1 TEMP              0 ****  ****    0 ROOT


##########                                Name:    ZINC000509132103
##########                DOCK_Rotatable_Bonds:                   7
##########                         Heavy_Atoms:                  29
##########                    Molecular_Weight:              405.52
##########                DOCK_Rotatable_Bonds:                   7
##########                       Formal_Charge:          -0.0499998
##########                     HBond_Acceptors:                   6
##########                        HBond_Donors:                   0
##########                         Heavy_Atoms:                  29
##########                          Grid_Score:          -33.885357
##########                     Grid_vdw_energy:          -35.043808
##########                      Grid_es_energy:            1.158450
##########           Internal_energy_repulsive:           13.199067

@<TRIPOS>MOLECULE
ZINC000509132103
 52 55 1 0 0
SMALL
USER_CHARGES


@<TRIPOS>ATOM
      1 C1         -9.2122   -0.1018   65.1347 C.3     1  ZINC000509132103    0.0300
      2 O2        -10.3784   -0.4020   64.3652 O.3     1  ZINC000509132103   -0.3000
      3 C3        -10.1844   -0.7998   63.0825 C.ar    1  ZINC000509132103    0.2700
      4 C4        -11.2752   -1.1023   62.2718 C.ar    1  ZINC000509132103   -0.1300
      5 C5        -11.0241   -1.5042   60.9685 C.ar    1  ZINC000509132103   -0.0700
      6 C6         -9.7028   -1.5803   60.5530 C.ar    1  ZINC000509132103    0.0500
      7 C7         -9.3788   -2.0116   59.1459 C.3     1  ZINC000509132103   -0.0500
      8 S8         -9.9994   -3.6938   58.8709 S.3     1  ZINC000509132103   -0.1500
      9 C9        -11.5310   -3.4165   57.9394 C.3     1  ZINC000509132103   -0.1300
     10 C10       -12.2605   -4.7244   57.7712 C.2     1  ZINC000509132103    0.5400
     11 O11       -11.7248   -5.7634   58.0943 O.2     1  ZINC000509132103   -0.5100
     12 N12       -13.5082   -4.7395   57.2617 N.am    1  ZINC000509132103   -0.6100
     13 C13       -14.2449   -5.9956   57.0854 C.3     1  ZINC000509132103    0.1500
     14 C14       -14.9145   -6.0062   55.7341 C.ar    1  ZINC000509132103   -0.1000
     15 C15       -15.4539   -7.2045   55.2881 C.ar    1  ZINC000509132103   -0.1100
     16 C16       -16.0883   -7.2748   54.0645 C.ar    1  ZINC000509132103   -0.1200
     17 C17       -16.1881   -6.1424   53.2783 C.ar    1  ZINC000509132103   -0.1200
     18 C18       -15.6488   -4.9516   53.7189 C.ar    1  ZINC000509132103   -0.1100
     19 C19       -15.0043   -4.8792   54.9475 C.ar    1  ZINC000509132103   -0.0600
     20 C20       -14.4164   -3.5525   55.3507 C.3     1  ZINC000509132103   -0.0200
     21 H21       -13.4654   -3.4111   54.8373 H       1  ZINC000509132103    0.1000
     22 C22       -15.3632   -2.4496   54.9530 C.ar    1  ZINC000509132103   -0.0800
     23 C23       -16.6879   -2.5013   55.3444 C.ar    1  ZINC000509132103   -0.1100
     24 C24       -17.5564   -1.4895   54.9796 C.ar    1  ZINC000509132103   -0.1200
     25 C25       -17.1000   -0.4259   54.2237 C.ar    1  ZINC000509132103   -0.1200
     26 C26       -15.7750   -0.3739   53.8330 C.ar    1  ZINC000509132103   -0.1200
     27 C27       -14.9056   -1.3834   54.2015 C.ar    1  ZINC000509132103   -0.1100
     28 C28       -14.1885   -3.4953   56.8657 C.3     1  ZINC000509132103    0.1200
     29 N29        -8.7306   -1.2747   61.3895 N.ar    1  ZINC000509132103   -0.1900
     30 N30        -8.9576   -0.8968   62.5950 N.ar    1  ZINC000509132103   -0.3000
     31 H31        -8.6604    0.7079   64.6572 H       1  ZINC000509132103    0.0600
     32 H32        -9.5079    0.2027   66.1387 H       1  ZINC000509132103    0.1000
     33 H33        -8.5790   -0.9869   65.1951 H       1  ZINC000509132103    0.0600
     34 H34       -12.2853   -1.0265   62.6464 H       1  ZINC000509132103    0.1600
     35 H35       -11.8332   -1.7511   60.2971 H       1  ZINC000509132103    0.1600
     36 H36        -9.8515   -1.3298   58.4389 H       1  ZINC000509132103    0.1100
     37 H37        -8.2987   -1.9945   59.0003 H       1  ZINC000509132103    0.1000
     38 H38       -12.1641   -2.7144   58.4819 H       1  ZINC000509132103    0.1100
     39 H39       -11.2905   -3.0058   56.9587 H       1  ZINC000509132103    0.1100
     40 H40       -13.5526   -6.8348   57.1536 H       1  ZINC000509132103    0.1000
     41 H41       -15.0007   -6.0854   57.8655 H       1  ZINC000509132103    0.0900
     42 H42       -15.3764   -8.0889   55.9031 H       1  ZINC000509132103    0.1200
     43 H43       -16.5053   -8.2106   53.7228 H       1  ZINC000509132103    0.1300
     44 H44       -16.6865   -6.1898   52.3214 H       1  ZINC000509132103    0.1200
     45 H45       -15.7279   -4.0678   53.1032 H       1  ZINC000509132103    0.1200
     46 H46       -17.0446   -3.3322   55.9350 H       1  ZINC000509132103    0.1200
     47 H47       -18.5916   -1.5301   55.2849 H       1  ZINC000509132103    0.1200
     48 H48       -17.7786    0.3642   53.9380 H       1  ZINC000509132103    0.1200
     49 H49       -15.4185    0.4569   53.2421 H       1  ZINC000509132103    0.1200
     50 H50       -13.8704   -1.3428   53.8962 H       1  ZINC000509132103    0.1200
     51 H51       -15.1461   -3.4129   57.3799 H       1  ZINC000509132103    0.0800
     52 H52       -13.5619   -2.6382   57.1123 H       1  ZINC000509132103    0.1000
@<TRIPOS>BOND
     1     1     2    1
     2     1    31    1
     3     1    32    1
     4     1    33    1
     5     2     3    1
     6     3    30   ar
     7     3     4   ar
     8     4     5   ar
     9     4    34    1
    10     5     6   ar
    11     5    35    1
    12     6     7    1
    13     6    29   ar
    14     7     8    1
    15     7    36    1
    16     7    37    1
    17     8     9    1
    18     9    10    1
    19     9    38    1
    20     9    39    1
    21    10    11    2
    22    10    12   am
    23    12    28    1
    24    12    13    1
    25    13    14    1
    26    13    40    1
    27    13    41    1
    28    14    19   ar
    29    14    15   ar
    30    15    16   ar
    31    15    42    1
    32    16    17   ar
    33    16    43    1
    34    17    18   ar
    35    17    44    1
    36    18    19   ar
    37    18    45    1
    38    19    20    1
    39    20    21    1
    40    20    22    1
    41    20    28    1
    42    22    27   ar
    43    22    23   ar
    44    23    24   ar
    45    23    46    1
    46    24    25   ar
    47    24    47    1
    48    25    26   ar
    49    25    48    1
    50    26    27   ar
    51    26    49    1
    52    27    50    1
    53    28    51    1
    54    28    52    1
    55    29    30   ar
@<TRIPOS>SUBSTRUCTURE
     1 ZINC000509132103        1 TEMP              0 ****  ****    0 ROOT


##########                                Name:    ZINC000464139057
##########                DOCK_Rotatable_Bonds:                   9
##########                         Heavy_Atoms:                  30
##########                    Molecular_Weight:              413.56
##########                DOCK_Rotatable_Bonds:                   9
##########                       Formal_Charge:         2.38419e-07
##########                     HBond_Acceptors:                   6
##########                        HBond_Donors:                   2
##########                         Heavy_Atoms:                  30
##########                          Grid_Score:          -33.850956
##########                     Grid_vdw_energy:          -32.602406
##########                      Grid_es_energy:           -1.248551
##########           Internal_energy_repulsive:            9.827021

@<TRIPOS>MOLECULE
ZINC000464139057
 65 67 1 0 0
SMALL
USER_CHARGES


@<TRIPOS>ATOM
      1 C1          0.7708   -0.0264   45.4400 C.3     1  ZINC000464139057   -0.1800
      2 C2          0.1489    1.0922   44.6017 C.3     1  ZINC000464139057    0.0700
      3 H3         -0.0524    0.7243   43.5956 H       1  ZINC000464139057    0.1200
      4 C4         -1.1619    1.5505   45.2512 C.3     1  ZINC000464139057    0.0800
      5 N5         -0.8418    2.2107   46.5268 N.am    1  ZINC000464139057   -0.6100
      6 C6         -1.4703    1.8602   47.6663 C.2     1  ZINC000464139057    0.5600
      7 O7         -2.3155    0.9869   47.6504 O.2     1  ZINC000464139057   -0.5300
      8 C8         -1.1316    2.5381   48.9359 C.ar    1  ZINC000464139057   -0.1200
      9 C9         -0.2210    1.9567   49.8196 C.ar    1  ZINC000464139057   -0.0900
     10 C10         0.0910    2.5946   51.0024 C.ar    1  ZINC000464139057   -0.1000
     11 C11        -0.4970    3.8078   51.3135 C.ar    1  ZINC000464139057   -0.0900
     12 C12        -0.1517    4.4987   52.6076 C.3     1  ZINC000464139057    0.1800
     13 N13        -1.1603    4.1734   53.6190 N.am    1  ZINC000464139057   -0.7400
     14 C14        -0.8446    4.2302   54.9281 C.2     1  ZINC000464139057    0.7000
     15 O15         0.2767    4.5530   55.2696 O.2     1  ZINC000464139057   -0.5900
     16 N16        -1.7721    3.9294   55.8586 N.am    1  ZINC000464139057   -0.7500
     17 C17        -1.4285    3.9895   57.2814 C.3     1  ZINC000464139057    0.1400
     18 C18        -2.1885    2.8970   58.0362 C.3     1  ZINC000464139057   -0.0900
     19 C19        -1.8318    2.9559   59.4991 C.2     1  ZINC000464139057   -0.1200
     20 C20        -2.6400    3.5237   60.3370 C.2     1  ZINC000464139057   -0.1500
     21 C21        -2.2939    3.5898   61.8091 C.3     1  ZINC000464139057   -0.0900
     22 C22        -2.4324    2.1880   62.4070 C.3     1  ZINC000464139057   -0.1100
     23 C23        -1.1531    1.3927   62.2155 C.3     1  ZINC000464139057   -0.1200
     24 C24        -0.8466    1.0731   60.7631 C.3     1  ZINC000464139057   -0.1100
     25 C25        -0.5335    2.3456   59.9825 C.3     1  ZINC000464139057   -0.0800
     26 C26        -1.4000    4.3897   50.4417 C.ar    1  ZINC000464139057   -0.1000
     27 C27        -1.7167    3.7649   49.2532 C.ar    1  ZINC000464139057   -0.0700
     28 C28         0.1851    3.2648   46.5213 C.3     1  ZINC000464139057    0.0700
     29 C29         1.4302    2.7230   45.8100 C.3     1  ZINC000464139057    0.0700
     30 H30         1.8779    1.9320   46.4115 H       1  ZINC000464139057    0.0700
     31 C31         2.4423    3.8544   45.6185 C.3     1  ZINC000464139057   -0.1500
     32 O32         1.0533    2.1973   44.5340 O.3     1  ZINC000464139057   -0.3700
     33 H33         0.9719    0.3421   46.4459 H       1  ZINC000464139057    0.0600
     34 H34         0.0801   -0.8680   45.4926 H       1  ZINC000464139057    0.0700
     35 H35         1.7037   -0.3505   44.9785 H       1  ZINC000464139057    0.0700
     36 H36        -1.6723    2.2528   44.5921 H       1  ZINC000464139057    0.0800
     37 H37        -1.8018    0.6874   45.4351 H       1  ZINC000464139057    0.1000
     38 H38         0.2379    1.0093   49.5782 H       1  ZINC000464139057    0.1300
     39 H39         0.7954    2.1458   51.6871 H       1  ZINC000464139057    0.1300
     40 H40         0.8272    4.1621   52.9493 H       1  ZINC000464139057    0.0800
     41 H41        -0.1303    5.5769   52.4494 H       1  ZINC000464139057    0.0800
     42 H42        -2.0553    3.9171   53.3467 H       1  ZINC000464139057    0.4000
     43 H43        -2.6671    3.6731   55.5861 H       1  ZINC000464139057    0.4000
     44 H44        -0.3562    3.8363   57.4031 H       1  ZINC000464139057    0.0700
     45 H45        -1.7038    4.9656   57.6808 H       1  ZINC000464139057    0.0700
     46 H46        -3.2609    3.0520   57.9173 H       1  ZINC000464139057    0.0700
     47 H47        -1.9158    1.9210   57.6348 H       1  ZINC000464139057    0.0800
     48 H48        -3.5660    3.9527   59.9832 H       1  ZINC000464139057    0.1100
     49 H49        -1.2682    3.9389   61.9284 H       1  ZINC000464139057    0.0700
     50 H50        -2.9764    4.2726   62.3151 H       1  ZINC000464139057    0.0700
     51 H51        -2.6467    2.2719   63.4724 H       1  ZINC000464139057    0.0600
     52 H52        -3.2550    1.6682   61.9159 H       1  ZINC000464139057    0.0600
     53 H53        -0.3222    1.9639   62.6296 H       1  ZINC000464139057    0.0600
     54 H54        -1.2386    0.4569   62.7679 H       1  ZINC000464139057    0.0600
     55 H55         0.0117    0.4027   60.7166 H       1  ZINC000464139057    0.0600
     56 H56        -1.7096    0.5815   60.3139 H       1  ZINC000464139057    0.0600
     57 H57         0.0974    2.1043   59.1271 H       1  ZINC000464139057    0.0700
     58 H58        -0.0195    3.0554   60.6308 H       1  ZINC000464139057    0.0700
     59 H59        -1.8552    5.3371   50.6904 H       1  ZINC000464139057    0.1300
     60 H60        -2.4216    4.2203   48.5734 H       1  ZINC000464139057    0.1300
     61 H61        -0.1898    4.1397   45.9901 H       1  ZINC000464139057    0.0800
     62 H62         0.4371    3.5370   47.5463 H       1  ZINC000464139057    0.1000
     63 H63         2.7260    4.2565   46.5910 H       1  ZINC000464139057    0.0800
     64 H64         3.3272    3.4685   45.1127 H       1  ZINC000464139057    0.0700
     65 H65         1.9945    4.6442   45.0154 H       1  ZINC000464139057    0.0700
@<TRIPOS>BOND
     1     1     2    1
     2     1    33    1
     3     1    34    1
     4     1    35    1
     5     2     3    1
     6     2    32    1
     7     2     4    1
     8     4     5    1
     9     4    36    1
    10     4    37    1
    11     5     6   am
    12     5    28    1
    13     6     7    2
    14     6     8    1
    15     8    27   ar
    16     8     9   ar
    17     9    10   ar
    18     9    38    1
    19    10    11   ar
    20    10    39    1
    21    11    12    1
    22    11    26   ar
    23    12    13    1
    24    12    40    1
    25    12    41    1
    26    13    14   am
    27    13    42    1
    28    14    15    2
    29    14    16   am
    30    16    17    1
    31    16    43    1
    32    17    18    1
    33    17    44    1
    34    17    45    1
    35    18    19    1
    36    18    46    1
    37    18    47    1
    38    19    25    1
    39    19    20    2
    40    20    21    1
    41    20    48    1
    42    21    22    1
    43    21    49    1
    44    21    50    1
    45    22    23    1
    46    22    51    1
    47    22    52    1
    48    23    24    1
    49    23    53    1
    50    23    54    1
    51    24    25    1
    52    24    55    1
    53    24    56    1
    54    25    57    1
    55    25    58    1
    56    26    27   ar
    57    26    59    1
    58    27    60    1
    59    28    29    1
    60    28    61    1
    61    28    62    1
    62    29    30    1
    63    29    31    1
    64    29    32    1
    65    31    63    1
    66    31    64    1
    67    31    65    1
@<TRIPOS>SUBSTRUCTURE
     1 ZINC000464139057        1 TEMP              0 ****  ****    0 ROOT


##########                                Name:    ZINC000058043838
##########                DOCK_Rotatable_Bonds:                   8
##########                         Heavy_Atoms:                  29
##########                    Molecular_Weight:             412.469
##########                DOCK_Rotatable_Bonds:                   8
##########                       Formal_Charge:           0.0200001
##########                     HBond_Acceptors:                   9
##########                        HBond_Donors:                   0
##########                         Heavy_Atoms:                  29
##########                          Grid_Score:          -33.838932
##########                     Grid_vdw_energy:          -33.460869
##########                      Grid_es_energy:           -0.378064
##########           Internal_energy_repulsive:           18.436148

@<TRIPOS>MOLECULE
ZINC000058043838
 49 51 1 0 0
SMALL
USER_CHARGES


@<TRIPOS>ATOM
      1 C1        -17.6002   -3.3612   60.4871 C.3     1  ZINC000058043838    0.0300
      2 O2        -16.9823   -3.2293   59.2053 O.3     1  ZINC000058043838   -0.3800
      3 C3        -15.6887   -3.8302   59.1190 C.3     1  ZINC000058043838    0.0300
      4 C4        -15.1948   -3.7719   57.6721 C.3     1  ZINC000058043838    0.1000
      5 N5        -13.8551   -4.3588   57.5893 N.am    1  ZINC000058043838   -0.5200
      6 C6        -13.7063   -5.6516   57.2386 C.2     1  ZINC000058043838    0.5100
      7 O7        -12.5972   -6.1372   57.1686 O.2     1  ZINC000058043838   -0.4500
      8 C8        -14.9182   -6.4939   56.9332 C.3     1  ZINC000058043838   -0.0900
      9 C9        -15.2464   -6.3885   55.4662 C.ar    1  ZINC000058043838   -0.1400
     10 C10       -15.9135   -7.4181   54.8206 C.ar    1  ZINC000058043838   -0.0500
     11 C11       -16.1948   -7.2775   53.4699 C.ar    1  ZINC000058043838   -0.1700
     12 C12       -15.8039   -6.1240   52.8172 C.ar    1  ZINC000058043838    0.1300
     13 C13       -16.1049   -5.9602   51.3497 C.3     1  ZINC000058043838   -0.1100
     14 N14       -15.1707   -5.1645   53.4637 N.ar    1  ZINC000058043838   -0.4800
     15 C15       -14.8912   -5.2617   54.7486 C.ar    1  ZINC000058043838    0.1200
     16 C16       -12.7379   -3.5828   57.8724 C.2     1  ZINC000058043838    0.3100
     17 N17       -12.4998   -2.9967   59.0042 N.2     1  ZINC000058043838   -0.4700
     18 C18       -11.3787   -2.2950   59.0946 C.2     1  ZINC000058043838    0.1100
     19 C19       -10.9900   -1.5780   60.3335 C.ar    1  ZINC000058043838    0.0400
     20 C20        -9.7517   -1.8234   60.9244 C.ar    1  ZINC000058043838   -0.0800
     21 C21        -9.3952   -1.1530   62.0768 C.ar    1  ZINC000058043838   -0.0500
     22 C22       -10.2640   -0.2390   62.6454 C.ar    1  ZINC000058043838   -0.0400
     23 N23        -9.8758    0.4770   63.8816 N.pl3   1  ZINC000058043838    0.0300
     24 O24        -8.7933    0.2609   64.3961 O.2     1  ZINC000058043838   -0.1600
     25 O25       -10.6391    1.2822   64.3841 O.2     1  ZINC000058043838   -0.1600
     26 C26       -11.4941    0.0088   62.0630 C.ar    1  ZINC000058043838   -0.0500
     27 C27       -11.8593   -0.6522   60.9078 C.ar    1  ZINC000058043838   -0.1100
     28 C28       -10.6180   -2.2783   57.9854 C.2     1  ZINC000058043838   -0.2600
     29 S29       -11.4208   -3.2479   56.7523 S.3     1  ZINC000058043838    0.1500
     30 H30       -17.7199   -4.4180   60.7257 H       1  ZINC000058043838    0.0500
     31 H31       -16.9740   -2.8868   61.2428 H       1  ZINC000058043838    0.0400
     32 H32       -18.5778   -2.8794   60.4706 H       1  ZINC000058043838    0.0900
     33 H33       -14.9937   -3.2905   59.7621 H       1  ZINC000058043838    0.0600
     34 H34       -15.7489   -4.8699   59.4407 H       1  ZINC000058043838    0.0800
     35 H35       -15.8770   -4.3319   57.0325 H       1  ZINC000058043838    0.1200
     36 H36       -15.1575   -2.7336   57.3425 H       1  ZINC000058043838    0.1000
     37 H37       -14.7107   -7.5338   57.1853 H       1  ZINC000058043838    0.1100
     38 H38       -15.7646   -6.1393   57.5213 H       1  ZINC000058043838    0.1100
     39 H39       -16.2066   -8.3086   55.3565 H       1  ZINC000058043838    0.1300
     40 H40       -16.7128   -8.0597   52.9349 H       1  ZINC000058043838    0.1400
     41 H41       -17.0778   -5.4834   51.2293 H       1  ZINC000058043838    0.0800
     42 H42       -15.3367   -5.3397   50.8883 H       1  ZINC000058043838    0.0800
     43 H43       -16.1181   -6.9389   50.8701 H       1  ZINC000058043838    0.0800
     44 H44       -14.3712   -4.4553   55.2443 H       1  ZINC000058043838    0.1500
     45 H45        -9.0727   -2.5370   60.4816 H       1  ZINC000058043838    0.1600
     46 H46        -8.4361   -1.3425   62.5358 H       1  ZINC000058043838    0.1600
     47 H47       -12.1685    0.7234   62.5112 H       1  ZINC000058043838    0.1600
     48 H48       -12.8197   -0.4576   60.4538 H       1  ZINC000058043838    0.1500
     49 H49        -9.6759   -1.7627   57.8716 H       1  ZINC000058043838    0.1800
@<TRIPOS>BOND
     1     1     2    1
     2     1    30    1
     3     1    31    1
     4     1    32    1
     5     2     3    1
     6     3     4    1
     7     3    33    1
     8     3    34    1
     9     4     5    1
    10     4    35    1
    11     4    36    1
    12     5     6   am
    13     5    16    1
    14     6     7    2
    15     6     8    1
    16     8     9    1
    17     8    37    1
    18     8    38    1
    19     9    15   ar
    20     9    10   ar
    21    10    11   ar
    22    10    39    1
    23    11    12   ar
    24    11    40    1
    25    12    13    1
    26    12    14   ar
    27    13    41    1
    28    13    42    1
    29    13    43    1
    30    14    15   ar
    31    15    44    1
    32    16    29    1
    33    16    17    2
    34    17    18    1
    35    18    19    1
    36    18    28    2
    37    19    27   ar
    38    19    20   ar
    39    20    21   ar
    40    20    45    1
    41    21    22   ar
    42    21    46    1
    43    22    23    1
    44    22    26   ar
    45    23    24    2
    46    23    25    2
    47    26    27   ar
    48    26    47    1
    49    27    48    1
    50    28    29    1
    51    28    49    1
@<TRIPOS>SUBSTRUCTURE
     1 ZINC000058043838        1 TEMP              0 ****  ****    0 ROOT


##########                                Name:     oleObject14.pdb
##########                DOCK_Rotatable_Bonds:                   9
##########                         Heavy_Atoms:                  33
##########                    Molecular_Weight:             484.424
##########                DOCK_Rotatable_Bonds:                   9
##########                       Formal_Charge:         0.000299782
##########                     HBond_Acceptors:                   7
##########                        HBond_Donors:                   1
##########                         Heavy_Atoms:                  33
##########                          Grid_Score:          -33.831249
##########                     Grid_vdw_energy:          -32.765106
##########                      Grid_es_energy:           -1.066141
##########           Internal_energy_repulsive:            7.504046

@<TRIPOS>MOLECULE
oleObject14.pdb
 60 63 1 0 0
SMALL
NO_CHARGES


@<TRIPOS>ATOM
      1 C         -10.4459    0.2209   65.0167 C.ar    1  UNL         0.0422
      2 C          -9.3487   -0.4516   64.4558 C.ar    1  UNL        -0.0408
      3 C          -9.4901   -1.1340   63.2359 C.ar    1  UNL        -0.0288
      4 C         -10.7340   -1.1467   62.5693 C.ar    1  UNL         0.0937
      5 C         -11.8305   -0.4683   63.1397 C.ar    1  UNL         0.0723
      6 C         -11.6862    0.2132   64.3598 C.ar    1  UNL        -0.0221
      7 CL        -13.3939   -0.4583   62.3451 Cl      1  UNL        -0.0814
      8 O         -10.9148   -1.8055   61.3683 O.3     1  UNL        -0.3432
      9 C          -9.8327   -2.2032   60.5079 C.3     1  UNL         0.0661
     10 C         -10.4371   -2.6045   59.1463 C.3     1  UNL         0.0222
     11 N         -11.0935   -1.4825   58.4391 N.4     1  UNL        -0.3010
     12 C         -10.1543   -0.4791   57.8854 C.3     1  UNL        -0.0010
     13 C         -10.8977    0.7221   57.2596 C.3     1  UNL        -0.0289
     14 C         -11.9417    0.2966   56.1991 C.3     1  UNL         0.0382
     15 C         -12.8528   -0.8201   56.7684 C.3     1  UNL        -0.0289
     16 C         -12.0668   -1.9714   57.4386 C.3     1  UNL        -0.0010
     17 C         -11.2689   -0.1152   54.8663 C.2     1  UNL         0.2156
     18 O         -10.9225   -1.2617   54.6477 O.2     1  UNL        -0.2774
     19 N         -11.0894    0.8280   53.8626 N.am    1  UNL        -0.3025
     20 C         -10.4746    0.6267   52.5371 C.3     1  UNL         0.0900
     21 C         -10.9611    1.6331   51.4960 C.ar    1  UNL        -0.0217
     22 C         -11.9850    1.3025   50.5853 C.ar    1  UNL        -0.0568
     23 C         -12.4126    2.2360   49.6270 C.ar    1  UNL        -0.0619
     24 C         -11.8230    3.5087   49.5735 C.ar    1  UNL        -0.0622
     25 C         -10.8072    3.8478   50.4809 C.ar    1  UNL        -0.0619
     26 C         -10.3798    2.9141   51.4390 C.ar    1  UNL        -0.0568
     27 C          -8.9509    0.6263   52.6164 C.ar    1  UNL         0.0652
     28 C          -8.2579    1.4038   53.5673 C.ar    1  UNL        -0.0383
     29 C          -6.8544    1.3680   53.5848 C.ar    1  UNL        -0.0588
     30 C          -6.1922    0.5570   52.6501 C.ar    1  UNL        -0.0438
     31 C          -6.9603   -0.1843   51.7358 C.ar    1  UNL         0.0272
     32 N          -8.3081   -0.1510   51.7175 N.ar    1  UNL        -0.2590
     33 CL        -10.2665    1.0702   66.5369 Cl      1  UNL        -0.0843
     34 H          -8.3890   -0.4449   64.9648 H       1  UNL         0.0639
     35 H          -8.6285   -1.6467   62.8206 H       1  UNL         0.0652
     36 H         -12.5346    0.7340   64.7946 H       1  UNL         0.0655
     37 H          -9.2960   -3.0517   60.9491 H       1  UNL         0.0586
     38 H          -9.1343   -1.3686   60.3651 H       1  UNL         0.0586
     39 H         -11.1761   -3.3951   59.3309 H       1  UNL         0.0455
     40 H          -9.6471   -3.0329   58.5157 H       1  UNL         0.0455
     41 H          -9.5182   -0.9486   57.1237 H       1  UNL         0.0431
     42 H          -9.4970   -0.0913   58.6722 H       1  UNL         0.0431
     43 H         -10.1714    1.4164   56.8213 H       1  UNL         0.0288
     44 H         -11.4100    1.2701   58.0609 H       1  UNL         0.0288
     45 H         -12.5939    1.1555   56.0199 H       1  UNL         0.0402
     46 H         -13.4972   -1.2205   55.9755 H       1  UNL         0.0288
     47 H         -13.5201   -0.3783   57.5200 H       1  UNL         0.0288
     48 H         -11.5429   -2.5513   56.6684 H       1  UNL         0.0431
     49 H         -12.7861   -2.6466   57.9200 H       1  UNL         0.0431
     50 H         -11.5142    1.7308   54.0319 H       1  UNL         0.1504
     51 H         -10.7674   -0.3769   52.2030 H       1  UNL         0.0624
     52 H         -12.4450    0.3190   50.6115 H       1  UNL         0.0626
     53 H         -13.1994    1.9723   48.9261 H       1  UNL         0.0623
     54 H         -12.1541    4.2310   48.8326 H       1  UNL         0.0623
     55 H         -10.3523    4.8335   50.4432 H       1  UNL         0.0623
     56 H          -9.5942    3.1870   52.1383 H       1  UNL         0.0626
     57 H          -8.7955    2.0237   54.2783 H       1  UNL         0.0643
     58 H          -6.2934    1.9555   54.3058 H       1  UNL         0.0624
     59 H          -5.1077    0.5034   52.6326 H       1  UNL         0.0639
     60 H          -6.4819   -0.8242   50.9953 H       1  UNL         0.0840
@<TRIPOS>BOND
     1     1     2   ar
     2     1     6   ar
     3     1    33    1
     4     2     3   ar
     5     2    34    1
     6     3     4   ar
     7     3    35    1
     8     4     5   ar
     9     4     8    1
    10     5     6   ar
    11     5     7    1
    12     6    36    1
    13     8     9    1
    14     9    10    1
    15     9    37    1
    16     9    38    1
    17    10    11    1
    18    10    39    1
    19    10    40    1
    20    11    12    1
    21    11    16    1
    22    12    13    1
    23    12    41    1
    24    12    42    1
    25    13    14    1
    26    13    43    1
    27    13    44    1
    28    14    15    1
    29    14    17    1
    30    14    45    1
    31    15    16    1
    32    15    46    1
    33    15    47    1
    34    16    48    1
    35    16    49    1
    36    17    18    2
    37    17    19   am
    38    19    20    1
    39    19    50    1
    40    20    21    1
    41    20    27    1
    42    20    51    1
    43    21    22   ar
    44    21    26   ar
    45    22    23   ar
    46    22    52    1
    47    23    24   ar
    48    23    53    1
    49    24    25   ar
    50    24    54    1
    51    25    26   ar
    52    25    55    1
    53    26    56    1
    54    27    28   ar
    55    27    32   ar
    56    28    29   ar
    57    28    57    1
    58    29    30   ar
    59    29    58    1
    60    30    31   ar
    61    30    59    1
    62    31    32   ar
    63    31    60    1
@<TRIPOS>SUBSTRUCTURE
     1 UNL         1 TEMP              0 ****  ****    0 ROOT


##########                                Name:    ZINC000572257265
##########                DOCK_Rotatable_Bonds:                  11
##########                         Heavy_Atoms:                  24
##########                    Molecular_Weight:             393.509
##########                DOCK_Rotatable_Bonds:                  11
##########                       Formal_Charge:          -0.0100002
##########                     HBond_Acceptors:                  11
##########                        HBond_Donors:                   3
##########                         Heavy_Atoms:                  24
##########                          Grid_Score:          -33.823231
##########                     Grid_vdw_energy:          -32.089569
##########                      Grid_es_energy:           -1.733662
##########           Internal_energy_repulsive:            8.607107

@<TRIPOS>MOLECULE
ZINC000572257265
 43 43 1 0 0
SMALL
USER_CHARGES


@<TRIPOS>ATOM
      1 C1          3.0648   -0.2206   52.0612 C.3     1  ZINC000572257265   -0.1300
      2 S2          3.3093    1.5765   52.0964 S.3     1  ZINC000572257265   -0.2200
      3 C3          1.7825    2.2107   51.3500 C.3     1  ZINC000572257265   -0.1300
      4 C4          1.7515    3.7357   51.4697 C.3     1  ZINC000572257265    0.1500
      5 C5          1.6681    4.1299   52.9457 C.3     1  ZINC000572257265   -0.1500
      6 O6          2.9411    4.2826   50.8972 O.3     1  ZINC000572257265   -0.5400
      7 C7          0.5304    4.2810   50.7264 C.3     1  ZINC000572257265    0.0900
      8 N8         -0.6892    3.7219   51.3146 N.am    1  ZINC000572257265   -1.1100
      9 S9         -2.0680    3.6031   50.4051 S.o2    1  ZINC000572257265    2.6900
     10 O10        -3.0109    2.8933   51.1966 O.2     1  ZINC000572257265   -0.9400
     11 O11        -2.3145    4.8999   49.8788 O.2     1  ZINC000572257265   -0.9500
     12 C12        -1.6964    2.5694   49.0274 C.ar    1  ZINC000572257265   -0.6300
     13 C13        -1.8490    1.1994   49.1301 C.ar    1  ZINC000572257265   -0.0400
     14 C14        -1.5574    0.3884   48.0492 C.ar    1  ZINC000572257265   -0.0400
     15 C15        -1.1136    0.9476   46.8655 C.ar    1  ZINC000572257265   -0.6300
     16 S16        -0.7413   -0.0861   45.4880 S.o2    1  ZINC000572257265    2.7000
     17 O17        -0.8594   -1.4255   45.9480 O.2     1  ZINC000572257265   -0.9400
     18 O18        -1.4828    0.4266   44.3895 O.2     1  ZINC000572257265   -0.9400
     19 N19         0.8571    0.1430   45.1211 N.am    1  ZINC000572257265   -1.1200
     20 C20         1.8876   -0.1530   46.1194 C.3     1  ZINC000572257265    0.2200
     21 C21         3.1383   -0.5253   45.4381 C.1     1  ZINC000572257265    0.1900
     22 N22         4.1034   -0.8127   44.9124 N.1     1  ZINC000572257265   -0.3900
     23 C23        -0.9622    2.3178   46.7623 C.ar    1  ZINC000572257265   -0.0400
     24 C24        -1.2575    3.1290   47.8420 C.ar    1  ZINC000572257265   -0.0400
     25 H25         2.9345   -0.5494   51.0302 H       1  ZINC000572257265    0.0800
     26 H26         3.9356   -0.7143   52.4927 H       1  ZINC000572257265    0.1000
     27 H27         2.1774   -0.4780   52.6396 H       1  ZINC000572257265    0.0800
     28 H28         1.7477    1.9280   50.2979 H       1  ZINC000572257265    0.0900
     29 H29         0.9218    1.7881   51.8685 H       1  ZINC000572257265    0.0900
     30 H30         2.5380    3.7415   53.4752 H       1  ZINC000572257265    0.0800
     31 H31         1.6460    5.2163   53.0310 H       1  ZINC000572257265    0.0700
     32 H32         0.7607    3.7127   53.3824 H       1  ZINC000572257265    0.0800
     33 H33         3.7571    3.9642   51.3067 H       1  ZINC000572257265    0.3800
     34 H34         0.5093    5.3675   50.8103 H       1  ZINC000572257265    0.0900
     35 H35         0.5892    3.9988   49.6752 H       1  ZINC000572257265    0.0800
     36 H36        -0.6892    3.4213   52.2369 H       1  ZINC000572257265    0.4300
     37 H37        -2.1958    0.7625   50.0549 H       1  ZINC000572257265    0.1500
     38 H38        -1.6760   -0.6820   48.1298 H       1  ZINC000572257265    0.1500
     39 H39         1.1111    0.4732   44.2451 H       1  ZINC000572257265    0.4300
     40 H40         2.0589    0.7286   46.7371 H       1  ZINC000572257265    0.1100
     41 H41         1.5570   -0.9791   46.7489 H       1  ZINC000572257265    0.1300
     42 H42        -0.6158    2.7546   45.8374 H       1  ZINC000572257265    0.1600
     43 H43        -1.1393    4.1995   47.7613 H       1  ZINC000572257265    0.1500
@<TRIPOS>BOND
     1     1     2    1
     2     1    25    1
     3     1    26    1
     4     1    27    1
     5     2     3    1
     6     3     4    1
     7     3    28    1
     8     3    29    1
     9     4     5    1
    10     4     6    1
    11     4     7    1
    12     5    30    1
    13     5    31    1
    14     5    32    1
    15     6    33    1
    16     7     8    1
    17     7    34    1
    18     7    35    1
    19     8     9   am
    20     8    36    1
    21     9    10    2
    22     9    11    2
    23     9    12    1
    24    12    24   ar
    25    12    13   ar
    26    13    14   ar
    27    13    37    1
    28    14    15   ar
    29    14    38    1
    30    15    16    1
    31    15    23   ar
    32    16    17    2
    33    16    18    2
    34    16    19   am
    35    19    20    1
    36    19    39    1
    37    20    21    1
    38    20    40    1
    39    20    41    1
    40    21    22    3
    41    23    24   ar
    42    23    42    1
    43    24    43    1
@<TRIPOS>SUBSTRUCTURE
     1 ZINC000572257265        1 TEMP              0 ****  ****    0 ROOT


##########                                Name:    ZINC000046390957
##########                DOCK_Rotatable_Bonds:                   9
##########                         Heavy_Atoms:                  29
##########                    Molecular_Weight:             408.521
##########                DOCK_Rotatable_Bonds:                   9
##########                       Formal_Charge:           0.0100005
##########                     HBond_Acceptors:                   6
##########                        HBond_Donors:                   1
##########                         Heavy_Atoms:                  29
##########                          Grid_Score:          -33.791367
##########                     Grid_vdw_energy:          -33.147797
##########                      Grid_es_energy:           -0.643571
##########           Internal_energy_repulsive:           14.359224

@<TRIPOS>MOLECULE
ZINC000046390957
 53 55 1 0 0
SMALL
USER_CHARGES


@<TRIPOS>ATOM
      1 C1        -11.2082    0.5083   63.7483 C.3     1  ZINC000046390957   -0.1100
      2 C2        -12.6858    0.2486   63.6055 C.ar    1  ZINC000046390957   -0.0600
      3 C3        -13.5909    0.9759   64.3535 C.ar    1  ZINC000046390957   -0.1200
      4 C4        -14.9468    0.7378   64.2235 C.ar    1  ZINC000046390957   -0.1100
      5 C5        -15.4011   -0.2281   63.3444 C.ar    1  ZINC000046390957   -0.1200
      6 C6        -14.5011   -0.9584   62.5932 C.ar    1  ZINC000046390957   -0.0800
      7 C7        -14.9971   -2.0106   61.6351 C.3     1  ZINC000046390957   -0.1100
      8 C8        -13.1390   -0.7182   62.7177 C.ar    1  ZINC000046390957    0.1300
      9 N9        -12.2247   -1.4560   61.9577 N.am    1  ZINC000046390957   -0.6800
     10 C10       -11.7738   -0.9676   60.7852 C.2     1  ZINC000046390957    0.5200
     11 O11       -12.1607    0.1114   60.3887 O.2     1  ZINC000046390957   -0.4900
     12 C12       -10.7891   -1.7622   59.9667 C.3     1  ZINC000046390957    0.0700
     13 H13       -10.5099   -1.1924   59.0805 H       1  ZINC000046390957    0.1100
     14 C14        -9.5409   -2.0458   60.8048 C.3     1  ZINC000046390957   -0.1700
     15 O15       -11.3967   -3.0178   59.5632 O.3     1  ZINC000046390957   -0.3300
     16 C16       -11.0111   -3.5302   58.3842 C.2     1  ZINC000046390957    0.4700
     17 O17       -10.0181   -4.2155   58.3190 O.2     1  ZINC000046390957   -0.4800
     18 C18       -11.8167   -3.2509   57.1415 C.3     1  ZINC000046390957   -0.0300
     19 C19       -13.1327   -3.9808   57.2214 C.2     1  ZINC000046390957    0.0800
     20 C20       -14.2035   -3.4747   57.8404 C.2     1  ZINC000046390957   -0.2500
     21 S21       -15.5148   -4.6429   57.6979 S.3     1  ZINC000046390957    0.1300
     22 C22       -14.4927   -5.6958   56.8202 C.2     1  ZINC000046390957    0.0600
     23 C23       -14.9004   -7.0425   56.2805 C.3     1  ZINC000046390957    0.0000
     24 C24       -15.4820   -6.8753   54.9003 C.ar    1  ZINC000046390957   -0.0900
     25 C25       -16.3566   -7.8214   54.3996 C.ar    1  ZINC000046390957   -0.0900
     26 C26       -16.8900   -7.6681   53.1335 C.ar    1  ZINC000046390957   -0.1200
     27 C27       -16.5491   -6.5685   52.3684 C.ar    1  ZINC000046390957   -0.1200
     28 C28       -15.6751   -5.6219   52.8694 C.ar    1  ZINC000046390957   -0.1200
     29 C29       -15.1450   -5.7730   54.1372 C.ar    1  ZINC000046390957   -0.1100
     30 N30       -13.3236   -5.1678   56.6820 N.2     1  ZINC000046390957   -0.4500
     31 H31       -10.9255    1.3536   63.1208 H       1  ZINC000046390957    0.0800
     32 H32       -10.9781    0.7356   64.7892 H       1  ZINC000046390957    0.0700
     33 H33       -10.6521   -0.3764   63.4382 H       1  ZINC000046390957    0.0600
     34 H34       -13.2392    1.7310   65.0410 H       1  ZINC000046390957    0.1300
     35 H35       -15.6525    1.3073   64.8100 H       1  ZINC000046390957    0.1300
     36 H36       -16.4607   -0.4119   63.2454 H       1  ZINC000046390957    0.1300
     37 H37       -15.1684   -1.5600   60.6575 H       1  ZINC000046390957    0.0700
     38 H38       -14.2516   -2.8007   61.5454 H       1  ZINC000046390957    0.0600
     39 H39       -15.9300   -2.4321   62.0094 H       1  ZINC000046390957    0.0700
     40 H40       -11.9153   -2.3189   62.2747 H       1  ZINC000046390957    0.4100
     41 H41        -9.0847   -1.1033   61.1077 H       1  ZINC000046390957    0.0800
     42 H42        -9.8200   -2.6157   61.6911 H       1  ZINC000046390957    0.0800
     43 H43        -8.8285   -2.6205   60.2128 H       1  ZINC000046390957    0.0800
     44 H44       -11.9996   -2.1795   57.0602 H       1  ZINC000046390957    0.1200
     45 H45       -11.2643   -3.5926   56.2661 H       1  ZINC000046390957    0.1300
     46 H46       -14.2559   -2.5185   58.3398 H       1  ZINC000046390957    0.1800
     47 H47       -14.0275   -7.6934   56.2306 H       1  ZINC000046390957    0.1000
     48 H48       -15.6475   -7.4865   56.9383 H       1  ZINC000046390957    0.1000
     49 H49       -16.6230   -8.6805   54.9975 H       1  ZINC000046390957    0.1200
     50 H50       -17.5728   -8.4076   52.7421 H       1  ZINC000046390957    0.1200
     51 H51       -16.9653   -6.4491   51.3789 H       1  ZINC000046390957    0.1200
     52 H52       -15.4084   -4.7630   52.2715 H       1  ZINC000046390957    0.1200
     53 H53       -14.4622   -5.0335   54.5286 H       1  ZINC000046390957    0.1200
@<TRIPOS>BOND
     1     1     2    1
     2     1    31    1
     3     1    32    1
     4     1    33    1
     5     2     8   ar
     6     2     3   ar
     7     3     4   ar
     8     3    34    1
     9     4     5   ar
    10     4    35    1
    11     5     6   ar
    12     5    36    1
    13     6     7    1
    14     6     8   ar
    15     7    37    1
    16     7    38    1
    17     7    39    1
    18     8     9    1
    19     9    10   am
    20     9    40    1
    21    10    11    2
    22    10    12    1
    23    12    13    1
    24    12    14    1
    25    12    15    1
    26    14    41    1
    27    14    42    1
    28    14    43    1
    29    15    16    1
    30    16    17    2
    31    16    18    1
    32    18    19    1
    33    18    44    1
    34    18    45    1
    35    19    30    1
    36    19    20    2
    37    20    21    1
    38    20    46    1
    39    21    22    1
    40    22    23    1
    41    22    30    2
    42    23    24    1
    43    23    47    1
    44    23    48    1
    45    24    29   ar
    46    24    25   ar
    47    25    26   ar
    48    25    49    1
    49    26    27   ar
    50    26    50    1
    51    27    28   ar
    52    27    51    1
    53    28    29   ar
    54    28    52    1
    55    29    53    1
@<TRIPOS>SUBSTRUCTURE
     1 ZINC000046390957        1 TEMP              0 ****  ****    0 ROOT


##########                                Name:    ZINC000465392830
##########                DOCK_Rotatable_Bonds:                   8
##########                         Heavy_Atoms:                  29
##########                    Molecular_Weight:             419.588
##########                DOCK_Rotatable_Bonds:                   8
##########                       Formal_Charge:           0.0199996
##########                     HBond_Acceptors:                   7
##########                        HBond_Donors:                   0
##########                         Heavy_Atoms:                  29
##########                          Grid_Score:          -33.671638
##########                     Grid_vdw_energy:          -33.598721
##########                      Grid_es_energy:           -0.072919
##########           Internal_energy_repulsive:           23.992027

@<TRIPOS>MOLECULE
ZINC000465392830
 62 64 1 0 0
SMALL
USER_CHARGES


@<TRIPOS>ATOM
      1 C1        -10.1603   -2.4943   59.9902 C.3     1  ZINC000465392830    0.0400
      2 O2        -10.8056   -2.1067   58.7484 O.3     1  ZINC000465392830   -0.3600
      3 C3        -11.5177   -0.9690   58.7609 C.2     1  ZINC000465392830    0.4600
      4 O4        -11.7007   -0.3822   59.8012 O.2     1  ZINC000465392830   -0.4900
      5 C5        -12.0891   -0.4237   57.4775 C.3     1  ZINC000465392830    0.1500
      6 H6        -12.9551    0.2019   57.6938 H       1  ZINC000465392830    0.1100
      7 C7        -11.0175    0.4020   56.7349 C.3     1  ZINC000465392830   -0.1100
      8 C8        -11.2706    0.0418   55.2471 C.3     1  ZINC000465392830   -0.0900
      9 H9        -12.0798    0.6426   54.8319 H       1  ZINC000465392830    0.1000
     10 C10        -9.9935    0.2004   54.4195 C.3     1  ZINC000465392830   -0.0800
     11 C11       -10.1882   -0.4546   53.0506 C.3     1  ZINC000465392830   -0.1200
     12 C12        -8.9112   -0.2960   52.2231 C.3     1  ZINC000465392830   -0.1200
     13 C13        -8.6049    1.1916   52.0378 C.3     1  ZINC000465392830   -0.1200
     14 C14        -8.4102    1.8465   53.4067 C.3     1  ZINC000465392830   -0.1200
     15 C15        -9.6873    1.6879   54.2342 C.3     1  ZINC000465392830   -0.1200
     16 C16       -11.6829   -1.4476   55.3534 C.3     1  ZINC000465392830    0.1000
     17 N17       -12.4809   -1.5317   56.5940 N.am    1  ZINC000465392830   -0.6100
     18 C18       -13.4089   -2.4696   56.8691 C.2     1  ZINC000465392830    0.5400
     19 O19       -14.0034   -2.4428   57.9258 O.2     1  ZINC000465392830   -0.5300
     20 C20       -13.7078   -3.5514   55.8634 C.3     1  ZINC000465392830   -0.1300
     21 C21       -15.0770   -4.1641   56.1653 C.3     1  ZINC000465392830   -0.0600
     22 C22       -15.4248   -5.1679   55.0964 C.ar    1  ZINC000465392830   -0.2000
     23 C23       -15.1016   -6.5071   55.2505 C.ar    1  ZINC000465392830    0.2000
     24 C24       -14.3952   -6.9828   56.4938 C.3     1  ZINC000465392830   -0.1100
     25 N25       -15.4209   -7.3622   54.2935 N.ar    1  ZINC000465392830   -0.5000
     26 C26       -16.0426   -6.9511   53.1973 C.ar    1  ZINC000465392830    0.3000
     27 S27       -16.4493   -8.1246   51.9475 S.3     1  ZINC000465392830    0.0000
     28 C28       -16.9710   -7.0059   50.6237 C.3     1  ZINC000465392830   -0.1400
     29 N29       -16.3661   -5.6779   53.0195 N.ar    1  ZINC000465392830   -0.5300
     30 C30       -16.0800   -4.7728   53.9405 C.ar    1  ZINC000465392830    0.2000
     31 C31       -16.4512   -3.3274   53.7304 C.3     1  ZINC000465392830   -0.1100
     32 H32        -9.4620   -1.7150   60.2954 H       1  ZINC000465392830    0.0600
     33 H33       -10.9151   -2.6297   60.7649 H       1  ZINC000465392830    0.0600
     34 H34        -9.6196   -3.4291   59.8423 H       1  ZINC000465392830    0.1000
     35 H35       -11.1665    1.4684   56.9043 H       1  ZINC000465392830    0.1000
     36 H36       -10.0163    0.0981   57.0403 H       1  ZINC000465392830    0.0800
     37 H37        -9.1631   -0.2797   54.9373 H       1  ZINC000465392830    0.0800
     38 H38       -10.4064   -1.5143   53.1826 H       1  ZINC000465392830    0.0600
     39 H39       -11.0186    0.0256   52.5328 H       1  ZINC000465392830    0.0700
     40 H40        -8.0807   -0.7762   52.7408 H       1  ZINC000465392830    0.0600
     41 H41        -9.0499   -0.7626   51.2478 H       1  ZINC000465392830    0.0600
     42 H42        -7.6951    1.3045   51.4483 H       1  ZINC000465392830    0.0600
     43 H43        -9.4353    1.6717   51.5200 H       1  ZINC000465392830    0.0600
     44 H44        -7.5798    1.3664   53.9245 H       1  ZINC000465392830    0.0600
     45 H45        -8.1921    2.9063   53.2748 H       1  ZINC000465392830    0.0600
     46 H46       -10.5177    2.1681   53.7165 H       1  ZINC000465392830    0.0700
     47 H47        -9.5485    2.1546   55.2095 H       1  ZINC000465392830    0.0600
     48 H48       -12.2886   -1.7358   54.4943 H       1  ZINC000465392830    0.0900
     49 H49       -10.7992   -2.0816   55.4256 H       1  ZINC000465392830    0.0800
     50 H50       -13.7143   -3.1237   54.8608 H       1  ZINC000465392830    0.1000
     51 H51       -12.9423   -4.3250   55.9235 H       1  ZINC000465392830    0.1000
     52 H52       -15.0466   -4.6615   57.1348 H       1  ZINC000465392830    0.0900
     53 H53       -15.8310   -3.3773   56.1841 H       1  ZINC000465392830    0.0900
     54 H54       -15.1326   -7.2647   57.2452 H       1  ZINC000465392830    0.0900
     55 H55       -13.7751   -7.8460   56.2516 H       1  ZINC000465392830    0.0900
     56 H56       -13.7668   -6.1821   56.8836 H       1  ZINC000465392830    0.0900
     57 H57       -17.8179   -6.4100   50.9642 H       1  ZINC000465392830    0.0900
     58 H58       -16.1451   -6.3456   50.3595 H       1  ZINC000465392830    0.0900
     59 H59       -17.2643   -7.5884   49.7504 H       1  ZINC000465392830    0.1100
     60 H60       -17.4501   -3.1474   54.1279 H       1  ZINC000465392830    0.0900
     61 H61       -15.7342   -2.6894   54.2470 H       1  ZINC000465392830    0.0900
     62 H62       -16.4379   -3.1001   52.6645 H       1  ZINC000465392830    0.0800
@<TRIPOS>BOND
     1     1     2    1
     2     1    32    1
     3     1    33    1
     4     1    34    1
     5     2     3    1
     6     3     4    2
     7     3     5    1
     8     5     6    1
     9     5    17    1
    10     5     7    1
    11     7     8    1
    12     7    35    1
    13     7    36    1
    14     8     9    1
    15     8    10    1
    16     8    16    1
    17    10    15    1
    18    10    11    1
    19    10    37    1
    20    11    12    1
    21    11    38    1
    22    11    39    1
    23    12    13    1
    24    12    40    1
    25    12    41    1
    26    13    14    1
    27    13    42    1
    28    13    43    1
    29    14    15    1
    30    14    44    1
    31    14    45    1
    32    15    46    1
    33    15    47    1
    34    16    17    1
    35    16    48    1
    36    16    49    1
    37    17    18   am
    38    18    19    2
    39    18    20    1
    40    20    21    1
    41    20    50    1
    42    20    51    1
    43    21    22    1
    44    21    52    1
    45    21    53    1
    46    22    30   ar
    47    22    23   ar
    48    23    24    1
    49    23    25   ar
    50    24    54    1
    51    24    55    1
    52    24    56    1
    53    25    26   ar
    54    26    27    1
    55    26    29   ar
    56    27    28    1
    57    28    57    1
    58    28    58    1
    59    28    59    1
    60    29    30   ar
    61    30    31    1
    62    31    60    1
    63    31    61    1
    64    31    62    1
@<TRIPOS>SUBSTRUCTURE
     1 ZINC000465392830        1 TEMP              0 ****  ****    0 ROOT


##########                                Name:    ZINC001289410668
##########                DOCK_Rotatable_Bonds:                  11
##########                         Heavy_Atoms:                  26
##########                    Molecular_Weight:             362.515
##########                DOCK_Rotatable_Bonds:                  11
##########                       Formal_Charge:          -0.0400008
##########                     HBond_Acceptors:                   6
##########                        HBond_Donors:                   1
##########                         Heavy_Atoms:                  26
##########                          Grid_Score:          -33.637146
##########                     Grid_vdw_energy:          -30.979712
##########                      Grid_es_energy:           -2.657435
##########           Internal_energy_repulsive:           18.932718

@<TRIPOS>MOLECULE
ZINC001289410668
 60 61 1 0 0
SMALL
USER_CHARGES


@<TRIPOS>ATOM
      1 C1         -1.5624    2.3667   65.1070 C.3     1  ZINC001289410668   -0.1500
      2 C2         -2.5586    3.5177   64.9519 C.3     1  ZINC001289410668   -0.1300
      3 C3         -3.9261    2.9583   64.5545 C.3     1  ZINC001289410668   -0.1200
      4 C4         -4.4200    1.9998   65.6401 C.3     1  ZINC001289410668   -0.1200
      5 C5         -5.7875    1.4403   65.2429 C.3     1  ZINC001289410668   -0.1100
      6 C6         -6.2893    0.4956   66.3366 C.3     1  ZINC001289410668   -0.1400
      7 C7         -7.6415   -0.0464   65.9507 C.2     1  ZINC001289410668    0.5100
      8 O8         -7.9374   -1.1900   66.2256 O.2     1  ZINC001289410668   -0.5300
      9 N9         -8.5219    0.7396   65.2999 N.am    1  ZINC001289410668   -0.7200
     10 C10        -9.8370    0.2133   64.9262 C.3     1  ZINC001289410668    0.1400
     11 H11       -10.1980   -0.4954   65.6716 H       1  ZINC001289410668    0.1100
     12 C12        -9.7970   -0.4330   63.5191 C.3     1  ZINC001289410668    0.0800
     13 N13       -11.1844   -0.3522   63.0271 N.am    1  ZINC001289410668   -0.6200
     14 C14       -11.7357   -1.1553   62.0957 C.2     1  ZINC001289410668    0.5100
     15 O15       -12.8926   -0.9981   61.7673 O.2     1  ZINC001289410668   -0.5100
     16 C16       -10.9146   -2.2488   61.4623 C.3     1  ZINC001289410668    0.0900
     17 N17       -10.4396   -1.8047   60.1495 N.pl3   1  ZINC001289410668   -0.4500
     18 C18        -9.5524   -0.7909   59.9071 C.2     1  ZINC001289410668   -0.0500
     19 C19        -9.3960   -0.7213   58.5713 C.2     1  ZINC001289410668   -0.0200
     20 N20       -10.1666   -1.6668   58.0134 N.2     1  ZINC001289410668   -0.4800
     21 C21       -10.7907   -2.3230   58.9529 C.2     1  ZINC001289410668    0.2300
     22 C22       -11.7514   -3.4640   58.7378 C.3     1  ZINC001289410668   -0.0100
     23 C23       -12.5007   -3.2581   57.4197 C.3     1  ZINC001289410668   -0.1400
     24 C24       -10.9748   -4.7810   58.6826 C.3     1  ZINC001289410668   -0.1400
     25 C25       -11.8674    0.7494   63.7214 C.3     1  ZINC001289410668    0.1100
     26 C26       -10.8562    1.3635   64.7130 C.3     1  ZINC001289410668   -0.1100
     27 H27       -10.3679    2.2346   64.2759 H       1  ZINC001289410668    0.0900
     28 C28       -11.5448    1.7346   66.0279 C.3     1  ZINC001289410668   -0.1400
     29 H29        -0.5881    2.7651   65.3900 H       1  ZINC001289410668    0.0500
     30 H30        -1.9141    1.6835   65.8799 H       1  ZINC001289410668    0.0500
     31 H31        -1.4754    1.8317   64.1613 H       1  ZINC001289410668    0.0500
     32 H32        -2.6456    4.0527   65.8976 H       1  ZINC001289410668    0.0600
     33 H33        -2.2068    4.2009   64.1788 H       1  ZINC001289410668    0.0600
     34 H34        -4.6358    3.7782   64.4436 H       1  ZINC001289410668    0.0600
     35 H35        -3.8389    2.4227   63.6092 H       1  ZINC001289410668    0.0600
     36 H36        -3.7103    1.1799   65.7510 H       1  ZINC001289410668    0.0600
     37 H37        -4.5071    2.5352   66.5854 H       1  ZINC001289410668    0.0600
     38 H38        -6.4939    2.2613   65.1195 H       1  ZINC001289410668    0.0700
     39 H39        -5.6978    0.8941   64.3039 H       1  ZINC001289410668    0.0700
     40 H40        -5.5871   -0.3298   66.4541 H       1  ZINC001289410668    0.1000
     41 H41        -6.3711    1.0398   67.2775 H       1  ZINC001289410668    0.1000
     42 H42        -8.2847    1.6538   65.0789 H       1  ZINC001289410668    0.4000
     43 H43        -9.1290    0.1259   62.8637 H       1  ZINC001289410668    0.0800
     44 H44        -9.4792   -1.4734   63.5883 H       1  ZINC001289410668    0.0800
     45 H45       -10.0603   -2.4771   62.0997 H       1  ZINC001289410668    0.1200
     46 H46       -11.5284   -3.1417   61.3437 H       1  ZINC001289410668    0.1200
     47 H47        -9.0709   -0.1666   60.6452 H       1  ZINC001289410668    0.1700
     48 H48        -8.7613   -0.0259   58.0421 H       1  ZINC001289410668    0.1700
     49 H49       -12.4658   -3.4975   59.5603 H       1  ZINC001289410668    0.0700
     50 H50       -11.7863   -3.2246   56.5972 H       1  ZINC001289410668    0.0700
     51 H51       -13.1955   -4.0834   57.2641 H       1  ZINC001289410668    0.0600
     52 H52       -13.0539   -2.3198   57.4590 H       1  ZINC001289410668    0.0500
     53 H53       -10.2605   -4.7475   57.8600 H       1  ZINC001289410668    0.0700
     54 H54       -10.4410   -4.9277   59.6217 H       1  ZINC001289410668    0.0600
     55 H55       -11.6696   -5.6063   58.5270 H       1  ZINC001289410668    0.0600
     56 H56       -12.1840    1.5025   63.0000 H       1  ZINC001289410668    0.0800
     57 H57       -12.7317    0.3662   64.2639 H       1  ZINC001289410668    0.0800
     58 H58       -12.0005    0.8451   66.4630 H       1  ZINC001289410668    0.0600
     59 H59       -10.8087    2.1417   66.7212 H       1  ZINC001289410668    0.0600
     60 H60       -12.3155    2.4812   65.8365 H       1  ZINC001289410668    0.0700
@<TRIPOS>BOND
     1     1     2    1
     2     1    29    1
     3     1    30    1
     4     1    31    1
     5     2     3    1
     6     2    32    1
     7     2    33    1
     8     3     4    1
     9     3    34    1
    10     3    35    1
    11     4     5    1
    12     4    36    1
    13     4    37    1
    14     5     6    1
    15     5    38    1
    16     5    39    1
    17     6     7    1
    18     6    40    1
    19     6    41    1
    20     7     8    2
    21     7     9   am
    22     9    10    1
    23     9    42    1
    24    10    11    1
    25    10    26    1
    26    10    12    1
    27    12    13    1
    28    12    43    1
    29    12    44    1
    30    13    14   am
    31    13    25    1
    32    14    15    2
    33    14    16    1
    34    16    17    1
    35    16    45    1
    36    16    46    1
    37    17    21    1
    38    17    18    1
    39    18    19    2
    40    18    47    1
    41    19    20    1
    42    19    48    1
    43    20    21    2
    44    21    22    1
    45    22    23    1
    46    22    24    1
    47    22    49    1
    48    23    50    1
    49    23    51    1
    50    23    52    1
    51    24    53    1
    52    24    54    1
    53    24    55    1
    54    25    26    1
    55    25    56    1
    56    25    57    1
    57    26    27    1
    58    26    28    1
    59    28    58    1
    60    28    59    1
    61    28    60    1
@<TRIPOS>SUBSTRUCTURE
     1 ZINC001289410668        1 TEMP              0 ****  ****    0 ROOT


##########                                Name:    ZINC000807524472
##########                DOCK_Rotatable_Bonds:                   9
##########                         Heavy_Atoms:                  28
##########                    Molecular_Weight:             410.534
##########                DOCK_Rotatable_Bonds:                   9
##########                       Formal_Charge:           0.0200006
##########                     HBond_Acceptors:                   8
##########                        HBond_Donors:                   0
##########                         Heavy_Atoms:                  28
##########                          Grid_Score:          -33.577473
##########                     Grid_vdw_energy:          -33.616776
##########                      Grid_es_energy:            0.039303
##########           Internal_energy_repulsive:           17.197607

@<TRIPOS>MOLECULE
ZINC000807524472
 58 60 1 0 0
SMALL
USER_CHARGES


@<TRIPOS>ATOM
      1 C1         -3.3211    3.2577   57.4311 C.3     1  ZINC000807524472   -0.1500
      2 C2         -4.4548    4.2829   57.3626 C.3     1  ZINC000807524472    0.0600
      3 O3         -5.3708    3.9119   56.3306 O.3     1  ZINC000807524472   -0.3800
      4 C4         -6.0464    2.6755   56.5699 C.3     1  ZINC000807524472    0.0600
      5 C5         -7.0100    2.3892   55.4166 C.3     1  ZINC000807524472    0.0700
      6 O6         -7.6493    1.1028   55.6280 O.3     1  ZINC000807524472   -0.3500
      7 C7         -8.7203    1.0788   56.4457 C.2     1  ZINC000807524472    0.5000
      8 O8         -8.9985    2.0567   57.1114 O.2     1  ZINC000807524472   -0.4600
      9 C9         -9.5537   -0.1326   56.5325 C.ar    1  ZINC000807524472   -0.1200
     10 C10        -9.4805   -0.9574   57.6584 C.ar    1  ZINC000807524472    0.0400
     11 C11       -10.2632   -2.0887   57.7334 C.ar    1  ZINC000807524472   -0.7000
     12 S12       -10.1692   -3.1263   59.1544 S.o2    1  ZINC000807524472    2.6900
     13 O13       -11.1564   -4.1337   58.9816 O.2     1  ZINC000807524472   -0.9500
     14 O14        -8.7915   -3.4137   59.3510 O.2     1  ZINC000807524472   -0.9500
     15 N15       -10.6481   -2.2205   60.4553 N.am    1  ZINC000807524472   -0.9900
     16 C16        -9.7347   -1.9874   61.5822 C.3     1  ZINC000807524472    0.1200
     17 C17        -9.6340   -0.4792   61.8316 C.3     1  ZINC000807524472   -0.1400
     18 C18       -11.0382    0.0956   62.0314 C.3     1  ZINC000807524472   -0.1200
     19 C19       -11.8686   -0.1304   60.7660 C.3     1  ZINC000807524472   -0.1400
     20 C20       -11.9926   -1.6296   60.5018 C.3     1  ZINC000807524472    0.1200
     21 C21       -11.1241   -2.4148   56.6976 C.ar    1  ZINC000807524472    0.0200
     22 C22       -11.2079   -1.6113   55.5789 C.ar    1  ZINC000807524472   -0.1800
     23 C23       -10.4312   -0.4632   55.4869 C.ar    1  ZINC000807524472    0.2000
     24 N24       -10.5139    0.3472   54.3627 N.3     1  ZINC000807524472   -0.4800
     25 C25       -10.0786   -0.3847   53.1457 C.3     1  ZINC000807524472    0.0400
     26 C26       -10.7154    0.4324   51.9936 C.3     1  ZINC000807524472   -0.1200
     27 C27       -12.0844    0.8474   52.5798 C.3     1  ZINC000807524472   -0.1300
     28 C28       -11.9115    0.7586   54.1075 C.3     1  ZINC000807524472    0.0400
     29 H29        -2.7989    3.2290   56.4748 H       1  ZINC000807524472    0.0600
     30 H30        -2.6225    3.5407   58.2184 H       1  ZINC000807524472    0.0700
     31 H31        -3.7345    2.2729   57.6490 H       1  ZINC000807524472    0.0700
     32 H32        -4.9771    4.3115   58.3189 H       1  ZINC000807524472    0.0500
     33 H33        -4.0414    5.2677   57.1448 H       1  ZINC000807524472    0.0500
     34 H34        -5.3154    1.8701   56.6411 H       1  ZINC000807524472    0.0600
     35 H35        -6.6060    2.7419   57.5030 H       1  ZINC000807524472    0.0700
     36 H36        -7.7695    3.1699   55.3754 H       1  ZINC000807524472    0.0900
     37 H37        -6.4571    2.3701   54.4774 H       1  ZINC000807524472    0.0800
     38 H38        -8.8111   -0.7083   58.4684 H       1  ZINC000807524472    0.1600
     39 H39       -10.1217   -2.4802   62.4742 H       1  ZINC000807524472    0.0800
     40 H40        -8.7486   -2.3846   61.3415 H       1  ZINC000807524472    0.0900
     41 H41        -9.0360   -0.2973   62.7245 H       1  ZINC000807524472    0.0800
     42 H42        -9.1632    0.0007   60.9736 H       1  ZINC000807524472    0.0700
     43 H43       -11.5179   -0.4023   62.8742 H       1  ZINC000807524472    0.0700
     44 H44       -10.9678    1.1644   62.2335 H       1  ZINC000807524472    0.0700
     45 H45       -12.8611    0.2998   60.9004 H       1  ZINC000807524472    0.0800
     46 H46       -11.3768    0.3462   59.9181 H       1  ZINC000807524472    0.0700
     47 H47       -12.4978   -1.7923   59.5498 H       1  ZINC000807524472    0.0900
     48 H48       -12.5628   -2.0962   61.3049 H       1  ZINC000807524472    0.0800
     49 H49       -11.7333   -3.3040   56.7663 H       1  ZINC000807524472    0.1500
     50 H50       -11.8812   -1.8729   54.7760 H       1  ZINC000807524472    0.1400
     51 H51        -8.9917   -0.3827   53.0638 H       1  ZINC000807524472    0.0900
     52 H52       -10.4631   -1.4047   53.1521 H       1  ZINC000807524472    0.0500
     53 H53       -10.1119    1.3107   51.7643 H       1  ZINC000807524472    0.0800
     54 H54       -10.8474   -0.1884   51.1075 H       1  ZINC000807524472    0.0800
     55 H55       -12.3283    1.8682   52.2855 H       1  ZINC000807524472    0.0800
     56 H56       -12.8624    0.1606   52.2465 H       1  ZINC000807524472    0.0700
     57 H57       -12.5975    0.0166   54.5163 H       1  ZINC000807524472    0.0500
     58 H58       -12.1006    1.7321   54.5597 H       1  ZINC000807524472    0.0900
@<TRIPOS>BOND
     1     1     2    1
     2     1    29    1
     3     1    30    1
     4     1    31    1
     5     2     3    1
     6     2    32    1
     7     2    33    1
     8     3     4    1
     9     4     5    1
    10     4    34    1
    11     4    35    1
    12     5     6    1
    13     5    36    1
    14     5    37    1
    15     6     7    1
    16     7     8    2
    17     7     9    1
    18     9    23   ar
    19     9    10   ar
    20    10    11   ar
    21    10    38    1
    22    11    12    1
    23    11    21   ar
    24    12    13    2
    25    12    14    2
    26    12    15   am
    27    15    20    1
    28    15    16    1
    29    16    17    1
    30    16    39    1
    31    16    40    1
    32    17    18    1
    33    17    41    1
    34    17    42    1
    35    18    19    1
    36    18    43    1
    37    18    44    1
    38    19    20    1
    39    19    45    1
    40    19    46    1
    41    20    47    1
    42    20    48    1
    43    21    22   ar
    44    21    49    1
    45    22    23   ar
    46    22    50    1
    47    23    24    1
    48    24    28    1
    49    24    25    1
    50    25    26    1
    51    25    51    1
    52    25    52    1
    53    26    27    1
    54    26    53    1
    55    26    54    1
    56    27    28    1
    57    27    55    1
    58    27    56    1
    59    28    57    1
    60    28    58    1
@<TRIPOS>SUBSTRUCTURE
     1 ZINC000807524472        1 TEMP              0 ****  ****    0 ROOT


##########                                Name:    ZINC001207290212
##########                DOCK_Rotatable_Bonds:                   8
##########                         Heavy_Atoms:                  23
##########                    Molecular_Weight:             344.435
##########                DOCK_Rotatable_Bonds:                   8
##########                       Formal_Charge:               -0.03
##########                     HBond_Acceptors:                   9
##########                        HBond_Donors:                   2
##########                         Heavy_Atoms:                  23
##########                          Grid_Score:          -33.561913
##########                     Grid_vdw_energy:          -28.381590
##########                      Grid_es_energy:           -5.180322
##########           Internal_energy_repulsive:            4.313964

@<TRIPOS>MOLECULE
ZINC001207290212
 47 48 1 0 0
SMALL
USER_CHARGES


@<TRIPOS>ATOM
      1 C1         -3.1902    3.7337   64.1801 C.3     1  ZINC001207290212   -0.1500
      2 C2         -4.6180    3.1844   64.1528 C.3     1  ZINC001207290212   -0.6300
      3 S3         -4.8028    1.9166   65.4368 S.o2    1  ZINC001207290212    2.6100
      4 O4         -4.0530    0.7564   65.1036 O.2     1  ZINC001207290212   -0.9500
      5 O5         -4.7145    2.4996   66.7298 O.2     1  ZINC001207290212   -0.9500
      6 N6         -6.3815    1.4316   65.3145 N.am    1  ZINC001207290212   -1.1100
      7 C7         -6.9016    0.3971   66.2120 C.3     1  ZINC001207290212    0.0900
      8 C8         -8.0794   -0.2842   65.5641 C.2     1  ZINC001207290212    0.5100
      9 O9         -8.5263   -1.3061   66.0406 O.2     1  ZINC001207290212   -0.5300
     10 N10        -8.6361    0.2420   64.4553 N.am    1  ZINC001207290212   -0.7200
     11 C11        -9.7822   -0.4193   63.8265 C.3     1  ZINC001207290212    0.1400
     12 H12       -10.2759   -1.0789   64.5401 H       1  ZINC001207290212    0.1000
     13 C13        -9.3273   -1.2154   62.5893 C.3     1  ZINC001207290212    0.0200
     14 N14       -10.0071   -0.6219   61.4175 N.3     1  ZINC001207290212   -0.5100
     15 C15       -10.3278   -1.6499   60.4184 C.3     1  ZINC001207290212    0.1300
     16 C16        -9.9544   -1.1508   59.0464 C.2     1  ZINC001207290212    0.0000
     17 C17        -9.8808   -1.8896   57.9270 C.2     1  ZINC001207290212   -0.0700
     18 O18        -9.5155   -1.0617   56.9286 O.3     1  ZINC001207290212   -0.2000
     19 C19        -9.3715    0.1651   57.4473 C.2     1  ZINC001207290212    0.1900
     20 C20        -8.9709    1.4000   56.6822 C.3     1  ZINC001207290212   -0.0600
     21 N21        -9.6407    0.1157   58.7208 N.2     1  ZINC001207290212   -0.4700
     22 C22       -11.2426    0.0123   61.9443 C.3     1  ZINC001207290212    0.0400
     23 C23       -10.7797    0.6322   63.2886 C.3     1  ZINC001207290212   -0.1000
     24 H24       -10.2800    1.5864   63.1215 H       1  ZINC001207290212    0.0900
     25 C25       -11.9639    0.8030   64.2422 C.3     1  ZINC001207290212   -0.1400
     26 H26        -2.9888    4.1737   65.1568 H       1  ZINC001207290212    0.0700
     27 H27        -2.4856    2.9232   63.9944 H       1  ZINC001207290212    0.0700
     28 H28        -3.0792    4.4956   63.4085 H       1  ZINC001207290212    0.0800
     29 H29        -5.3227    3.9950   64.3384 H       1  ZINC001207290212    0.1300
     30 H30        -4.8194    2.7445   63.1761 H       1  ZINC001207290212    0.1300
     31 H31        -6.9619    1.8325   64.6486 H       1  ZINC001207290212    0.4300
     32 H32        -6.1211   -0.3374   66.4107 H       1  ZINC001207290212    0.1000
     33 H33        -7.2172    0.8547   67.1496 H       1  ZINC001207290212    0.1100
     34 H34        -8.2779    1.0587   64.0735 H       1  ZINC001207290212    0.4100
     35 H35        -8.2466   -1.1341   62.4721 H       1  ZINC001207290212    0.0800
     36 H36        -9.6144   -2.2616   62.6946 H       1  ZINC001207290212    0.0500
     37 H37        -9.7678   -2.5585   60.6393 H       1  ZINC001207290212    0.0600
     38 H38       -11.3960   -1.8651   60.4485 H       1  ZINC001207290212    0.1000
     39 H39       -10.0770   -2.9484   57.8430 H       1  ZINC001207290212    0.2100
     40 H40        -8.8143    1.1435   55.6345 H       1  ZINC001207290212    0.0900
     41 H41        -9.7609    2.1472   56.7590 H       1  ZINC001207290212    0.1000
     42 H42        -8.0481    1.8028   57.0997 H       1  ZINC001207290212    0.1000
     43 H43       -11.5971    0.7872   61.2648 H       1  ZINC001207290212    0.0900
     44 H44       -12.0169   -0.7360   62.1136 H       1  ZINC001207290212    0.0500
     45 H45       -12.4304   -0.1661   64.4195 H       1  ZINC001207290212    0.0600
     46 H46       -11.6122    1.2153   65.1880 H       1  ZINC001207290212    0.0600
     47 H47       -12.6926    1.4815   63.7987 H       1  ZINC001207290212    0.0600
@<TRIPOS>BOND
     1     1     2    1
     2     1    26    1
     3     1    27    1
     4     1    28    1
     5     2     3    1
     6     2    29    1
     7     2    30    1
     8     3     4    2
     9     3     5    2
    10     3     6   am
    11     6     7    1
    12     6    31    1
    13     7     8    1
    14     7    32    1
    15     7    33    1
    16     8     9    2
    17     8    10   am
    18    10    11    1
    19    10    34    1
    20    11    12    1
    21    11    23    1
    22    11    13    1
    23    13    14    1
    24    13    35    1
    25    13    36    1
    26    14    15    1
    27    14    22    1
    28    15    16    1
    29    15    37    1
    30    15    38    1
    31    16    21    1
    32    16    17    2
    33    17    18    1
    34    17    39    1
    35    18    19    1
    36    19    20    1
    37    19    21    2
    38    20    40    1
    39    20    41    1
    40    20    42    1
    41    22    23    1
    42    22    43    1
    43    22    44    1
    44    23    24    1
    45    23    25    1
    46    25    45    1
    47    25    46    1
    48    25    47    1
@<TRIPOS>SUBSTRUCTURE
     1 ZINC001207290212        1 TEMP              0 ****  ****    0 ROOT


##########                                Name:    ZINC000600609084
##########                DOCK_Rotatable_Bonds:                   8
##########                         Heavy_Atoms:                  30
##########                    Molecular_Weight:             422.548
##########                DOCK_Rotatable_Bonds:                   8
##########                       Formal_Charge:           0.0100005
##########                     HBond_Acceptors:                   6
##########                        HBond_Donors:                   2
##########                         Heavy_Atoms:                  30
##########                          Grid_Score:          -33.503143
##########                     Grid_vdw_energy:          -32.520397
##########                      Grid_es_energy:           -0.982745
##########           Internal_energy_repulsive:           21.351469

@<TRIPOS>MOLECULE
ZINC000600609084
 56 59 1 0 0
SMALL
USER_CHARGES


@<TRIPOS>ATOM
      1 O1        -11.9817    0.6920   56.4200 O.2     1  ZINC000600609084   -0.5300
      2 C2        -11.2200   -0.1351   55.9656 C.2     1  ZINC000600609084    0.5200
      3 C3        -11.7332   -1.4964   55.5723 C.3     1  ZINC000600609084   -0.1500
      4 C4        -11.9401   -2.3458   56.8279 C.3     1  ZINC000600609084    0.1300
      5 N5        -10.6917   -3.0355   57.1622 N.am    1  ZINC000600609084   -1.1200
      6 S6        -10.6041   -3.9770   58.5217 S.o2    1  ZINC000600609084    2.7000
      7 O7        -11.6803   -4.9012   58.4398 O.2     1  ZINC000600609084   -0.9600
      8 O8         -9.2457   -4.3750   58.6473 O.2     1  ZINC000600609084   -0.9500
      9 C9        -10.9468   -2.9351   59.9007 C.ar    1  ZINC000600609084   -0.6700
     10 C10       -12.2631   -2.5693   60.1741 C.ar    1  ZINC000600609084   -0.0400
     11 C11       -12.5622   -1.7658   61.2314 C.ar    1  ZINC000600609084   -0.1200
     12 C12       -11.5303   -1.2966   62.0617 C.ar    1  ZINC000600609084   -0.0100
     13 C13       -11.7999   -0.4659   63.1628 C.ar    1  ZINC000600609084   -0.1200
     14 C14       -10.7749   -0.0310   63.9451 C.ar    1  ZINC000600609084   -0.0900
     15 C15        -9.4580   -0.3969   63.6716 C.ar    1  ZINC000600609084   -0.1200
     16 C16        -9.1590   -1.1997   62.6142 C.ar    1  ZINC000600609084   -0.0900
     17 C17       -10.1911   -1.6688   61.7835 C.ar    1  ZINC000600609084   -0.0800
     18 C18        -9.9220   -2.5042   60.6864 C.ar    1  ZINC000600609084    0.0200
     19 N19        -9.9156    0.1650   55.8070 N.am    1  ZINC000600609084   -0.7200
     20 C20        -9.4168    1.4883   56.1892 C.3     1  ZINC000600609084    0.1400
     21 H21       -10.1647    2.0111   56.7853 H       1  ZINC000600609084    0.1000
     22 C22        -8.1095    1.3481   56.9888 C.3     1  ZINC000600609084   -0.1300
     23 C23        -7.0203    2.0886   56.1857 C.3     1  ZINC000600609084   -0.1300
     24 C24        -7.5554    2.0910   54.7323 C.3     1  ZINC000600609084   -0.1200
     25 C25        -9.0775    2.3096   54.9283 C.3     1  ZINC000600609084   -0.0700
     26 H26        -9.2934    3.3657   55.0906 H       1  ZINC000600609084    0.0900
     27 C27        -9.8423    1.7933   53.7368 C.ar    1  ZINC000600609084   -0.0600
     28 C28        -9.4964    0.5833   53.1650 C.ar    1  ZINC000600609084   -0.1100
     29 C29       -10.1979    0.1097   52.0720 C.ar    1  ZINC000600609084   -0.1200
     30 C30       -11.2455    0.8461   51.5512 C.ar    1  ZINC000600609084   -0.1200
     31 C31       -11.5918    2.0558   52.1236 C.ar    1  ZINC000600609084   -0.1200
     32 C32       -10.8931    2.5272   53.2192 C.ar    1  ZINC000600609084   -0.1100
     33 H33       -12.6816   -1.3890   55.0459 H       1  ZINC000600609084    0.1000
     34 H34       -11.0085   -1.9833   54.9196 H       1  ZINC000600609084    0.1000
     35 H35       -12.2332   -1.7025   57.6576 H       1  ZINC000600609084    0.0900
     36 H36       -12.7235   -3.0811   56.6441 H       1  ZINC000600609084    0.0800
     37 H37        -9.9162   -2.9407   56.5872 H       1  ZINC000600609084    0.4200
     38 H38       -13.0581   -2.9282   59.5372 H       1  ZINC000600609084    0.1400
     39 H39       -13.5872   -1.4901   61.4309 H       1  ZINC000600609084    0.1400
     40 H40       -12.8154   -0.1739   63.3867 H       1  ZINC000600609084    0.1300
     41 H41       -10.9848    0.6076   64.7904 H       1  ZINC000600609084    0.1300
     42 H42        -8.6630   -0.0375   64.3082 H       1  ZINC000600609084    0.1300
     43 H43        -8.1339   -1.4747   62.4142 H       1  ZINC000600609084    0.1300
     44 H44        -8.9071   -2.7998   60.4653 H       1  ZINC000600609084    0.1500
     45 H45        -9.3073   -0.4952   55.4397 H       1  ZINC000600609084    0.4000
     46 H46        -8.2228    1.8036   57.9725 H       1  ZINC000600609084    0.0800
     47 H47        -7.8463    0.2954   57.0924 H       1  ZINC000600609084    0.0700
     48 H48        -6.9043    3.1090   56.5512 H       1  ZINC000600609084    0.0700
     49 H49        -6.0732    1.5520   56.2427 H       1  ZINC000600609084    0.0700
     50 H50        -7.1181    2.9099   54.1609 H       1  ZINC000600609084    0.0700
     51 H51        -7.3618    1.1340   54.2478 H       1  ZINC000600609084    0.0700
     52 H52        -8.6781    0.0080   53.5719 H       1  ZINC000600609084    0.1200
     53 H53        -9.9273   -0.8353   51.6249 H       1  ZINC000600609084    0.1200
     54 H54       -11.7930    0.4765   50.6967 H       1  ZINC000600609084    0.1200
     55 H55       -12.4100    2.6312   51.7163 H       1  ZINC000600609084    0.1200
     56 H56       -11.1637    3.4724   53.6663 H       1  ZINC000600609084    0.1200
@<TRIPOS>BOND
     1     1     2    2
     2     2     3    1
     3     2    19   am
     4     3     4    1
     5     3    33    1
     6     3    34    1
     7     4     5    1
     8     4    35    1
     9     4    36    1
    10     5     6   am
    11     5    37    1
    12     6     7    2
    13     6     8    2
    14     6     9    1
    15     9    18   ar
    16     9    10   ar
    17    10    11   ar
    18    10    38    1
    19    11    12   ar
    20    11    39    1
    21    12    17   ar
    22    12    13   ar
    23    13    14   ar
    24    13    40    1
    25    14    15   ar
    26    14    41    1
    27    15    16   ar
    28    15    42    1
    29    16    17   ar
    30    16    43    1
    31    17    18   ar
    32    18    44    1
    33    19    20    1
    34    19    45    1
    35    20    21    1
    36    20    25    1
    37    20    22    1
    38    22    23    1
    39    22    46    1
    40    22    47    1
    41    23    24    1
    42    23    48    1
    43    23    49    1
    44    24    25    1
    45    24    50    1
    46    24    51    1
    47    25    26    1
    48    25    27    1
    49    27    32   ar
    50    27    28   ar
    51    28    29   ar
    52    28    52    1
    53    29    30   ar
    54    29    53    1
    55    30    31   ar
    56    30    54    1
    57    31    32   ar
    58    31    55    1
    59    32    56    1
@<TRIPOS>SUBSTRUCTURE
     1 ZINC000600609084        1 TEMP              0 ****  ****    0 ROOT


##########                                Name:    ZINC000435005159
##########                DOCK_Rotatable_Bonds:                  12
##########                         Heavy_Atoms:                  30
##########                    Molecular_Weight:             401.508
##########                DOCK_Rotatable_Bonds:                  12
##########                       Formal_Charge:          -0.0399985
##########                     HBond_Acceptors:                   5
##########                        HBond_Donors:                   2
##########                         Heavy_Atoms:                  30
##########                          Grid_Score:          -33.492676
##########                     Grid_vdw_energy:          -32.524570
##########                      Grid_es_energy:           -0.968106
##########           Internal_energy_repulsive:           11.233231

@<TRIPOS>MOLECULE
ZINC000435005159
 57 59 1 0 0
SMALL
USER_CHARGES


@<TRIPOS>ATOM
      1 O1         -1.1149    4.7997   49.1882 O.2     1  ZINC000435005159   -0.5300
      2 C2         -1.7132    3.8193   49.5780 C.2     1  ZINC000435005159    0.5200
      3 C3         -2.9251    3.9774   50.4597 C.3     1  ZINC000435005159   -0.1400
      4 C4         -2.4785    4.1756   51.9097 C.3     1  ZINC000435005159   -0.1200
      5 C5         -3.7032    4.4330   52.7898 C.3     1  ZINC000435005159    0.1200
      6 N6         -4.6412    3.3150   52.6604 N.am    1  ZINC000435005159   -0.7200
      7 C7         -5.9664    3.5300   52.7789 C.2     1  ZINC000435005159    0.5600
      8 O8         -6.3833    4.6513   52.9945 O.2     1  ZINC000435005159   -0.5300
      9 C9         -6.9130    2.4022   52.6466 C.ar    1  ZINC000435005159   -0.1900
     10 C10        -8.2925    2.6144   52.7537 C.ar    1  ZINC000435005159   -0.0200
     11 C11        -9.1360    1.5251   52.6218 C.ar    1  ZINC000435005159   -0.1800
     12 C12        -8.5944    0.2737   52.3906 C.ar    1  ZINC000435005159    0.1200
     13 N13        -7.2894    0.1033   52.2947 N.ar    1  ZINC000435005159   -0.4900
     14 C14        -6.4467    1.1087   52.4072 C.ar    1  ZINC000435005159    0.1400
     15 N15        -1.2976    2.5888   49.2181 N.am    1  ZINC000435005159   -0.7300
     16 C16        -0.1195    2.4352   48.3610 C.3     1  ZINC000435005159    0.1900
     17 H17         0.1961    3.4135   47.9983 H       1  ZINC000435005159    0.1000
     18 C18         1.0163    1.7986   49.1646 C.3     1  ZINC000435005159   -0.1200
     19 C19         1.9083    2.8976   49.7454 C.3     1  ZINC000435005159   -0.0800
     20 C20         3.1262    2.2744   50.3774 C.ar    1  ZINC000435005159   -0.0800
     21 C21         2.9844    1.4114   51.4481 C.ar    1  ZINC000435005159   -0.1200
     22 C22         4.1015    0.8397   52.0277 C.ar    1  ZINC000435005159   -0.1200
     23 C23         5.3605    1.1307   51.5366 C.ar    1  ZINC000435005159   -0.1200
     24 C24         5.5023    1.9929   50.4655 C.ar    1  ZINC000435005159   -0.1200
     25 C25         4.3848    2.5612   49.8830 C.ar    1  ZINC000435005159   -0.1200
     26 C26        -0.4624    1.5516   47.1893 C.ar    1  ZINC000435005159   -0.1000
     27 C27        -0.5102    2.0828   45.9140 C.ar    1  ZINC000435005159   -0.1100
     28 C28        -0.8247    1.2724   44.8392 C.ar    1  ZINC000435005159   -0.1200
     29 C29        -1.0909   -0.0692   45.0396 C.ar    1  ZINC000435005159   -0.1200
     30 C30        -1.0422   -0.6004   46.3149 C.ar    1  ZINC000435005159   -0.1200
     31 C31        -0.7235    0.2090   47.3891 C.ar    1  ZINC000435005159   -0.1000
     32 H32        -3.5002    4.8446   50.1350 H       1  ZINC000435005159    0.1000
     33 H33        -3.5447    3.0834   50.3894 H       1  ZINC000435005159    0.1000
     34 H34        -1.9633    3.2799   52.2568 H       1  ZINC000435005159    0.0800
     35 H35        -1.8030    5.0290   51.9684 H       1  ZINC000435005159    0.0800
     36 H36        -3.3903    4.5262   53.8297 H       1  ZINC000435005159    0.0700
     37 H37        -4.1910    5.3548   52.4730 H       1  ZINC000435005159    0.0700
     38 H38        -4.3084    2.4200   52.4896 H       1  ZINC000435005159    0.4000
     39 H39        -8.6884    3.6028   52.9350 H       1  ZINC000435005159    0.1500
     40 H40       -10.2058    1.6509   52.6989 H       1  ZINC000435005159    0.1500
     41 H41        -9.2503   -0.5781   52.2871 H       1  ZINC000435005159    0.1600
     42 H42        -5.3851    0.9295   52.3225 H       1  ZINC000435005159    0.1600
     43 H43        -1.7784    1.8049   49.5267 H       1  ZINC000435005159    0.4000
     44 H44         0.5979    1.2034   49.9762 H       1  ZINC000435005159    0.0700
     45 H45         1.6084    1.1573   48.5116 H       1  ZINC000435005159    0.0800
     46 H46         2.2182    3.5732   48.9483 H       1  ZINC000435005159    0.0700
     47 H47         1.3531    3.4556   50.4994 H       1  ZINC000435005159    0.0700
     48 H48         2.0007    1.1842   51.8318 H       1  ZINC000435005159    0.1200
     49 H49         3.9907    0.1662   52.8647 H       1  ZINC000435005159    0.1200
     50 H50         6.2333    0.6846   51.9900 H       1  ZINC000435005159    0.1200
     51 H51         6.4859    2.2205   50.0819 H       1  ZINC000435005159    0.1200
     52 H52         4.4956    3.2348   49.0461 H       1  ZINC000435005159    0.1200
     53 H53        -0.3022    3.1310   45.7573 H       1  ZINC000435005159    0.1200
     54 H54        -0.8628    1.6875   43.8428 H       1  ZINC000435005159    0.1200
     55 H55        -1.3373   -0.7021   44.2000 H       1  ZINC000435005159    0.1200
     56 H56        -1.2505   -1.6485   46.4716 H       1  ZINC000435005159    0.1200
     57 H57        -0.6853   -0.2061   48.3854 H       1  ZINC000435005159    0.1200
@<TRIPOS>BOND
     1     1     2    2
     2     2     3    1
     3     2    15   am
     4     3     4    1
     5     3    32    1
     6     3    33    1
     7     4     5    1
     8     4    34    1
     9     4    35    1
    10     5     6    1
    11     5    36    1
    12     5    37    1
    13     6     7   am
    14     6    38    1
    15     7     8    2
    16     7     9    1
    17     9    14   ar
    18     9    10   ar
    19    10    11   ar
    20    10    39    1
    21    11    12   ar
    22    11    40    1
    23    12    13   ar
    24    12    41    1
    25    13    14   ar
    26    14    42    1
    27    15    16    1
    28    15    43    1
    29    16    17    1
    30    16    18    1
    31    16    26    1
    32    18    19    1
    33    18    44    1
    34    18    45    1
    35    19    20    1
    36    19    46    1
    37    19    47    1
    38    20    25   ar
    39    20    21   ar
    40    21    22   ar
    41    21    48    1
    42    22    23   ar
    43    22    49    1
    44    23    24   ar
    45    23    50    1
    46    24    25   ar
    47    24    51    1
    48    25    52    1
    49    26    31   ar
    50    26    27   ar
    51    27    28   ar
    52    27    53    1
    53    28    29   ar
    54    28    54    1
    55    29    30   ar
    56    29    55    1
    57    30    31   ar
    58    30    56    1
    59    31    57    1
@<TRIPOS>SUBSTRUCTURE
     1 ZINC000435005159        1 TEMP              0 ****  ****    0 ROOT


##########                                Name:    ZINC000033150761
##########                DOCK_Rotatable_Bonds:                   7
##########                         Heavy_Atoms:                  29
##########                    Molecular_Weight:             413.407
##########                DOCK_Rotatable_Bonds:                   7
##########                       Formal_Charge:          0.00999993
##########                     HBond_Acceptors:                  10
##########                        HBond_Donors:                   1
##########                         Heavy_Atoms:                  29
##########                          Grid_Score:          -33.426399
##########                     Grid_vdw_energy:          -31.881662
##########                      Grid_es_energy:           -1.544737
##########           Internal_energy_repulsive:            7.918642

@<TRIPOS>MOLECULE
ZINC000033150761
 42 45 1 0 0
SMALL
USER_CHARGES


@<TRIPOS>ATOM
      1 O1        -11.6999   -5.0090   58.1500 O.2     1  ZINC000033150761   -0.5000
      2 C2        -12.3070   -4.1306   57.5748 C.2     1  ZINC000033150761    0.5200
      3 C3        -13.2487   -4.4773   56.4504 C.3     1  ZINC000033150761   -0.1300
      4 C4        -13.9873   -5.7746   56.7855 C.3     1  ZINC000033150761   -0.0100
      5 C5        -14.8400   -6.1846   55.6126 C.2     1  ZINC000033150761    0.1800
      6 N6        -15.4156   -5.3831   54.7514 N.2     1  ZINC000033150761   -0.4400
      7 C7        -16.0686   -6.1898   53.8849 C.2     1  ZINC000033150761    0.2200
      8 C8        -16.8782   -5.7577   52.7176 C.ar    1  ZINC000033150761    0.1900
      9 C9        -17.4972   -6.7125   51.9156 C.ar    1  ZINC000033150761   -0.1300
     10 C10       -18.2493   -6.2946   50.8301 C.ar    1  ZINC000033150761   -0.0700
     11 C11       -18.3564   -4.9340   50.5839 C.ar    1  ZINC000033150761   -0.1500
     12 C12       -17.7143   -4.0403   51.4226 C.ar    1  ZINC000033150761    0.1100
     13 N13       -17.0099   -4.4650   52.4510 N.ar    1  ZINC000033150761   -0.4500
     14 N14       -15.8535   -7.4213   54.2667 N.2     1  ZINC000033150761   -0.3600
     15 O15       -15.1463   -7.4348   55.2521 O.3     1  ZINC000033150761    0.0900
     16 N16       -12.1437   -2.8449   57.9447 N.am    1  ZINC000033150761   -0.6200
     17 C17       -11.2754   -2.5253   58.9814 C.2     1  ZINC000033150761    0.2700
     18 N18       -11.5724   -1.7915   60.0083 N.2     1  ZINC000033150761   -0.5000
     19 C19       -10.6143   -1.5913   60.9024 C.2     1  ZINC000033150761    0.1200
     20 C20       -10.8256   -0.7722   62.1209 C.ar    1  ZINC000033150761    0.0000
     21 C21        -9.7319   -0.2676   62.8218 C.ar    1  ZINC000033150761   -0.0800
     22 C22        -9.9320    0.4947   63.9550 C.ar    1  ZINC000033150761   -0.1200
     23 C23       -11.2173    0.7590   64.3968 C.ar    1  ZINC000033150761    0.0700
     24 F24       -11.4081    1.5056   65.5064 F       1  ZINC000033150761   -0.1300
     25 C25       -12.3102    0.2595   63.7025 C.ar    1  ZINC000033150761    0.0700
     26 F26       -13.5625    0.5204   64.1370 F       1  ZINC000033150761   -0.1300
     27 C27       -12.1187   -0.5002   62.5646 C.ar    1  ZINC000033150761   -0.1000
     28 C28        -9.4376   -2.1825   60.6286 C.2     1  ZINC000033150761   -0.2800
     29 S29        -9.6023   -3.0597   59.1092 S.3     1  ZINC000033150761    0.2200
     30 H30       -13.9709   -3.6713   56.3198 H       1  ZINC000033150761    0.1200
     31 H31       -12.6815   -4.6097   55.5291 H       1  ZINC000033150761    0.1200
     32 H32       -13.2628   -6.5602   57.0002 H       1  ZINC000033150761    0.1300
     33 H33       -14.6212   -5.6168   57.6581 H       1  ZINC000033150761    0.1200
     34 H34       -17.3923   -7.7644   52.1365 H       1  ZINC000033150761    0.1400
     35 H35       -18.7409   -7.0120   50.1898 H       1  ZINC000033150761    0.1500
     36 H36       -18.9352   -4.5754   49.7454 H       1  ZINC000033150761    0.1400
     37 H37       -17.7954   -2.9801   51.2340 H       1  ZINC000033150761    0.1700
     38 H38       -12.6322   -2.1428   57.4872 H       1  ZINC000033150761    0.4300
     39 H39        -8.7287   -0.4731   62.4789 H       1  ZINC000033150761    0.1400
     40 H40        -9.0844    0.8854   64.4984 H       1  ZINC000033150761    0.1500
     41 H41       -12.9691   -0.8890   62.0241 H       1  ZINC000033150761    0.1600
     42 H42        -8.5470   -2.1320   61.2373 H       1  ZINC000033150761    0.1800
@<TRIPOS>BOND
     1     1     2    2
     2     2     3    1
     3     2    16   am
     4     3     4    1
     5     3    30    1
     6     3    31    1
     7     4     5    1
     8     4    32    1
     9     4    33    1
    10     5    15    1
    11     5     6    2
    12     6     7    1
    13     7     8    1
    14     7    14    2
    15     8    13   ar
    16     8     9   ar
    17     9    10   ar
    18     9    34    1
    19    10    11   ar
    20    10    35    1
    21    11    12   ar
    22    11    36    1
    23    12    13   ar
    24    12    37    1
    25    14    15    1
    26    16    17    1
    27    16    38    1
    28    17    29    1
    29    17    18    2
    30    18    19    1
    31    19    20    1
    32    19    28    2
    33    20    27   ar
    34    20    21   ar
    35    21    22   ar
    36    21    39    1
    37    22    23   ar
    38    22    40    1
    39    23    24    1
    40    23    25   ar
    41    25    26    1
    42    25    27   ar
    43    27    41    1
    44    28    29    1
    45    28    42    1
@<TRIPOS>SUBSTRUCTURE
     1 ZINC000033150761        1 TEMP              0 ****  ****    0 ROOT


##########                                Name:    ZINC000058174787
##########                DOCK_Rotatable_Bonds:                   9
##########                         Heavy_Atoms:                  27
##########                    Molecular_Weight:             413.882
##########                DOCK_Rotatable_Bonds:                   9
##########                       Formal_Charge:           0.0200002
##########                     HBond_Acceptors:                  10
##########                        HBond_Donors:                   1
##########                         Heavy_Atoms:                  27
##########                          Grid_Score:          -33.327206
##########                     Grid_vdw_energy:          -29.551149
##########                      Grid_es_energy:           -3.776055
##########           Internal_energy_repulsive:            4.871074

@<TRIPOS>MOLECULE
ZINC000058174787
 47 48 1 0 0
SMALL
USER_CHARGES


@<TRIPOS>ATOM
      1 C1         -9.1732   -0.2070   52.4480 C.3     1  ZINC000058174787   -0.0700
      2 C2         -8.4923    0.7765   53.3647 C.2     1  ZINC000058174787    0.2100
      3 N3         -9.0926    1.5731   54.2062 N.2     1  ZINC000058174787   -0.4200
      4 C4         -8.1743    2.3054   54.8540 C.2     1  ZINC000058174787   -0.5600
      5 S5         -8.5009    3.5207   56.0872 S.o2    1  ZINC000058174787    2.7400
      6 O6         -7.3083    4.2805   56.2277 O.2     1  ZINC000058174787   -0.9500
      7 O7         -9.7566    4.0988   55.7583 O.2     1  ZINC000058174787   -0.9600
      8 N8         -8.7162    2.7192   57.5204 N.am    1  ZINC000058174787   -1.1100
      9 C9         -9.7900    1.7316   57.6532 C.3     1  ZINC000058174787    0.1300
     10 C10       -10.3453    1.7706   59.0783 C.3     1  ZINC000058174787   -0.1200
     11 C11       -11.3267    0.6426   59.2661 C.2     1  ZINC000058174787    0.4700
     12 O12       -12.4682    0.8812   59.5823 O.2     1  ZINC000058174787   -0.5000
     13 O13       -10.9328   -0.6274   59.0820 O.3     1  ZINC000058174787   -0.3300
     14 C14       -10.0072   -1.1782   60.0558 C.3     1  ZINC000058174787    0.0400
     15 H15        -9.2663   -0.4238   60.3201 H       1  ZINC000058174787    0.1200
     16 C16        -9.3027   -2.3973   59.4571 C.3     1  ZINC000058174787   -0.1700
     17 C17       -10.7651   -1.5922   61.2909 C.2     1  ZINC000058174787    0.4000
     18 O18       -11.5544   -2.5114   61.2383 O.2     1  ZINC000058174787   -0.4200
     19 C19       -10.5472   -0.8816   62.5602 C.ar    1  ZINC000058174787   -0.1600
     20 C20        -9.3501   -1.0512   63.2641 C.ar    1  ZINC000058174787   -0.0600
     21 C21        -9.1528   -0.3818   64.4525 C.ar    1  ZINC000058174787   -0.1200
     22 C22       -10.1365    0.4576   64.9504 C.ar    1  ZINC000058174787    0.0000
     23 Cl23       -9.8788    1.2972   66.4478 Cl      1  ZINC000058174787   -0.0500
     24 C24       -11.3246    0.6303   64.2586 C.ar    1  ZINC000058174787   -0.1200
     25 C25       -11.5337   -0.0285   63.0663 C.ar    1  ZINC000058174787   -0.0400
     26 C26        -6.9589    1.9490   54.3964 C.2     1  ZINC000058174787    0.0700
     27 N27        -7.1597    0.9754   53.4555 N.pl3   1  ZINC000058174787   -0.4500
     28 C28        -6.1231    0.2843   52.6847 C.3     1  ZINC000058174787    0.0600
     29 H29        -9.2795   -1.1648   52.9574 H       1  ZINC000058174787    0.0900
     30 H30       -10.1586    0.1715   52.1765 H       1  ZINC000058174787    0.1000
     31 H31        -8.5738   -0.3391   51.5473 H       1  ZINC000058174787    0.0800
     32 H32        -8.1312    2.9036   58.2718 H       1  ZINC000058174787    0.4200
     33 H33       -10.5866    1.9637   56.9464 H       1  ZINC000058174787    0.0900
     34 H34        -9.3967    0.7368   57.4437 H       1  ZINC000058174787    0.0900
     35 H35        -9.5270    1.6626   59.7903 H       1  ZINC000058174787    0.1200
     36 H36       -10.8495    2.7224   59.2459 H       1  ZINC000058174787    0.1200
     37 H37       -10.0437   -3.1517   59.1929 H       1  ZINC000058174787    0.0800
     38 H38        -8.7546   -2.0978   58.5639 H       1  ZINC000058174787    0.0800
     39 H39        -8.6079   -2.8107   60.1881 H       1  ZINC000058174787    0.0800
     40 H40        -8.5828   -1.7054   62.8774 H       1  ZINC000058174787    0.1400
     41 H41        -8.2293   -0.5120   64.9971 H       1  ZINC000058174787    0.1400
     42 H42       -12.0869    1.2861   64.6526 H       1  ZINC000058174787    0.1400
     43 H43       -12.4600    0.1073   62.5280 H       1  ZINC000058174787    0.1500
     44 H44        -6.0081    2.3512   54.7139 H       1  ZINC000058174787    0.1900
     45 H45        -5.8020   -0.6065   53.2248 H       1  ZINC000058174787    0.0900
     46 H46        -6.5246   -0.0047   51.7135 H       1  ZINC000058174787    0.1000
     47 H47        -5.2717    0.9497   52.5426 H       1  ZINC000058174787    0.0900
@<TRIPOS>BOND
     1     1     2    1
     2     1    29    1
     3     1    30    1
     4     1    31    1
     5     2    27    1
     6     2     3    2
     7     3     4    1
     8     4     5    1
     9     4    26    2
    10     5     6    2
    11     5     7    2
    12     5     8   am
    13     8     9    1
    14     8    32    1
    15     9    10    1
    16     9    33    1
    17     9    34    1
    18    10    11    1
    19    10    35    1
    20    10    36    1
    21    11    12    2
    22    11    13    1
    23    13    14    1
    24    14    15    1
    25    14    16    1
    26    14    17    1
    27    16    37    1
    28    16    38    1
    29    16    39    1
    30    17    18    2
    31    17    19    1
    32    19    25   ar
    33    19    20   ar
    34    20    21   ar
    35    20    40    1
    36    21    22   ar
    37    21    41    1
    38    22    23    1
    39    22    24   ar
    40    24    25   ar
    41    24    42    1
    42    25    43    1
    43    26    27    1
    44    26    44    1
    45    27    28    1
    46    28    45    1
    47    28    46    1
    48    28    47    1
@<TRIPOS>SUBSTRUCTURE
     1 ZINC000058174787        1 TEMP              0 ****  ****    0 ROOT


##########                                Name:    ZINC000062291520
##########                DOCK_Rotatable_Bonds:                  10
##########                         Heavy_Atoms:                  29
##########                    Molecular_Weight:             398.502
##########                DOCK_Rotatable_Bonds:                  10
##########                       Formal_Charge:          -0.0100006
##########                     HBond_Acceptors:                   6
##########                        HBond_Donors:                   1
##########                         Heavy_Atoms:                  29
##########                          Grid_Score:          -33.271900
##########                     Grid_vdw_energy:          -32.223854
##########                      Grid_es_energy:           -1.048048
##########           Internal_energy_repulsive:           16.563976

@<TRIPOS>MOLECULE
ZINC000062291520
 59 61 1 0 0
SMALL
USER_CHARGES


@<TRIPOS>ATOM
      1 C1        -20.0548    0.8615   61.8399 C.3     1  ZINC000062291520    0.0300
      2 O2        -19.1536   -0.1393   61.3617 O.3     1  ZINC000062291520   -0.3100
      3 C3        -18.0227   -0.3490   62.0872 C.ar    1  ZINC000062291520    0.1000
      4 C4        -17.7853    0.3926   63.2328 C.ar    1  ZINC000062291520   -0.1700
      5 C5        -16.6319    0.1820   63.9662 C.ar    1  ZINC000062291520   -0.1200
      6 C6        -15.7168   -0.7717   63.5620 C.ar    1  ZINC000062291520   -0.1200
      7 C7        -15.9508   -1.5198   62.4228 C.ar    1  ZINC000062291520   -0.1700
      8 C8        -17.1040   -1.3138   61.6836 C.ar    1  ZINC000062291520    0.1000
      9 O9        -17.3356   -2.0488   60.5630 O.3     1  ZINC000062291520   -0.3100
     10 C10       -16.2511   -2.8370   60.0685 C.3     1  ZINC000062291520    0.0700
     11 C11       -16.5872   -3.3432   58.6644 C.3     1  ZINC000062291520   -0.1400
     12 C12       -15.3737   -4.0065   58.0656 C.2     1  ZINC000062291520    0.5200
     13 O13       -15.2618   -5.2135   58.1031 O.2     1  ZINC000062291520   -0.5400
     14 N14       -14.4127   -3.2582   57.4885 N.am    1  ZINC000062291520   -0.7200
     15 C15       -13.2321   -3.9028   56.9080 C.3     1  ZINC000062291520    0.1600
     16 C16       -12.0085   -3.0773   57.2122 C.ar    1  ZINC000062291520   -0.1100
     17 C17       -11.4941   -2.2250   56.2536 C.ar    1  ZINC000062291520   -0.1000
     18 C18       -10.3717   -1.4674   56.5329 C.ar    1  ZINC000062291520   -0.1200
     19 C19        -9.7642   -1.5625   57.7706 C.ar    1  ZINC000062291520   -0.0900
     20 C20       -10.2785   -2.4156   58.7294 C.ar    1  ZINC000062291520   -0.0800
     21 C21        -9.6158   -2.5196   60.0789 C.3     1  ZINC000062291520    0.0900
     22 N22       -10.0986   -1.4369   60.9463 N.3     1  ZINC000062291520   -0.5300
     23 C23       -11.5308   -1.5948   61.2384 C.3     1  ZINC000062291520    0.0100
     24 C24       -12.0046   -0.4164   62.0933 C.3     1  ZINC000062291520    0.0600
     25 O25       -11.2138   -0.3487   63.2829 O.3     1  ZINC000062291520   -0.3800
     26 C26        -9.8136   -0.1943   63.0354 C.3     1  ZINC000062291520    0.0900
     27 H27        -9.6395    0.7389   62.4998 H       1  ZINC000062291520    0.0700
     28 C28        -9.0595   -0.1677   64.3664 C.3     1  ZINC000062291520   -0.1500
     29 C29        -9.3176   -1.3703   62.1900 C.3     1  ZINC000062291520    0.0200
     30 C30       -11.4039   -3.1686   58.4522 C.ar    1  ZINC000062291520   -0.0900
     31 H31       -20.3941    0.5962   62.8412 H       1  ZINC000062291520    0.0500
     32 H32       -19.5448    1.8242   61.8721 H       1  ZINC000062291520    0.0600
     33 H33       -20.9130    0.9271   61.1710 H       1  ZINC000062291520    0.1000
     34 H34       -18.4986    1.1385   63.5508 H       1  ZINC000062291520    0.1400
     35 H35       -16.4460    0.7638   64.8569 H       1  ZINC000062291520    0.1300
     36 H36       -14.8173   -0.9332   64.1374 H       1  ZINC000062291520    0.1300
     37 H37       -15.2345   -2.2649   62.1095 H       1  ZINC000062291520    0.1400
     38 H38       -16.0875   -3.6865   60.7316 H       1  ZINC000062291520    0.0700
     39 H39       -15.3479   -2.2280   60.0285 H       1  ZINC000062291520    0.0700
     40 H40       -16.8887   -2.5037   58.0380 H       1  ZINC000062291520    0.1100
     41 H41       -17.4030   -4.0638   58.7236 H       1  ZINC000062291520    0.1100
     42 H42       -14.5027   -2.2929   57.4574 H       1  ZINC000062291520    0.4000
     43 H43       -13.1144   -4.8983   57.3359 H       1  ZINC000062291520    0.0800
     44 H44       -13.3565   -3.9838   55.8281 H       1  ZINC000062291520    0.0800
     45 H45       -11.9691   -2.1503   55.2865 H       1  ZINC000062291520    0.1200
     46 H46        -9.9700   -0.8010   55.7839 H       1  ZINC000062291520    0.1300
     47 H47        -8.8875   -0.9707   57.9887 H       1  ZINC000062291520    0.1200
     48 H48        -9.8586   -3.4820   60.5295 H       1  ZINC000062291520    0.0500
     49 H49        -8.5355   -2.4361   59.9605 H       1  ZINC000062291520    0.0900
     50 H50       -12.0925   -1.6160   60.3044 H       1  ZINC000062291520    0.0900
     51 H51       -11.6911   -2.5265   61.7808 H       1  ZINC000062291520    0.0400
     52 H52       -11.8942    0.5099   61.5295 H       1  ZINC000062291520    0.0600
     53 H53       -13.0519   -0.5583   62.3601 H       1  ZINC000062291520    0.1000
     54 H54        -9.2328   -1.1017   64.9009 H       1  ZINC000062291520    0.0600
     55 H55        -7.9925   -0.0500   64.1771 H       1  ZINC000062291520    0.0700
     56 H56        -9.4158    0.6675   64.9694 H       1  ZINC000062291520    0.0700
     57 H57        -9.4424   -2.2981   62.7484 H       1  ZINC000062291520    0.0400
     58 H58        -8.2638   -1.2277   61.9508 H       1  ZINC000062291520    0.0900
     59 H59       -11.8084   -3.8314   59.2028 H       1  ZINC000062291520    0.1200
@<TRIPOS>BOND
     1     1     2    1
     2     1    31    1
     3     1    32    1
     4     1    33    1
     5     2     3    1
     6     3     8   ar
     7     3     4   ar
     8     4     5   ar
     9     4    34    1
    10     5     6   ar
    11     5    35    1
    12     6     7   ar
    13     6    36    1
    14     7     8   ar
    15     7    37    1
    16     8     9    1
    17     9    10    1
    18    10    11    1
    19    10    38    1
    20    10    39    1
    21    11    12    1
    22    11    40    1
    23    11    41    1
    24    12    13    2
    25    12    14   am
    26    14    15    1
    27    14    42    1
    28    15    16    1
    29    15    43    1
    30    15    44    1
    31    16    30   ar
    32    16    17   ar
    33    17    18   ar
    34    17    45    1
    35    18    19   ar
    36    18    46    1
    37    19    20   ar
    38    19    47    1
    39    20    21    1
    40    20    30   ar
    41    21    22    1
    42    21    48    1
    43    21    49    1
    44    22    29    1
    45    22    23    1
    46    23    24    1
    47    23    50    1
    48    23    51    1
    49    24    25    1
    50    24    52    1
    51    24    53    1
    52    25    26    1
    53    26    27    1
    54    26    28    1
    55    26    29    1
    56    28    54    1
    57    28    55    1
    58    28    56    1
    59    29    57    1
    60    29    58    1
    61    30    59    1
@<TRIPOS>SUBSTRUCTURE
     1 ZINC000062291520        1 TEMP              0 ****  ****    0 ROOT


##########                                Name:    ZINC000338927927
##########                DOCK_Rotatable_Bonds:                   9
##########                         Heavy_Atoms:                  23
##########                    Molecular_Weight:             336.286
##########                DOCK_Rotatable_Bonds:                   9
##########                       Formal_Charge:         -0.00999999
##########                     HBond_Acceptors:                   9
##########                        HBond_Donors:                   2
##########                         Heavy_Atoms:                  23
##########                          Grid_Score:          -33.264839
##########                     Grid_vdw_energy:          -25.785576
##########                      Grid_es_energy:           -7.479263
##########           Internal_energy_repulsive:           17.976519

@<TRIPOS>MOLECULE
ZINC000338927927
 39 39 1 0 0
SMALL
USER_CHARGES


@<TRIPOS>ATOM
      1 C1         -9.4954    2.5329   66.9776 C.3     1  <0>        -0.1600
      2 C2         -8.5423    1.3754   67.2821 C.3     1  <0>        -0.1100
      3 C3         -7.8630    0.9205   65.9889 C.3     1  <0>        -0.1000
      4 H4         -7.5203    1.7928   65.4322 H       1  <0>         0.1400
      5 C5         -8.8461    0.1443   65.1511 C.2     1  <0>         0.5200
      6 O6         -9.4184   -0.8160   65.6215 O.2     1  <0>        -0.4700
      7 N7         -9.0895    0.5173   63.8790 N.am    1  <0>        -0.6700
      8 C8        -10.0023   -0.2033   63.1010 C.ar    1  <0>         0.2200
      9 C9        -11.3668   -0.0369   63.2983 C.ar    1  <0>        -0.2300
     10 C10       -12.2704   -0.7494   62.5290 C.ar    1  <0>         0.1700
     11 F11       -13.5974   -0.5859   62.7227 F       1  <0>        -0.1300
     12 C12       -11.8164   -1.6283   61.5618 C.ar    1  <0>        -0.2500
     13 C13       -10.4521   -1.7978   61.3610 C.ar    1  <0>         0.2600
     14 N14        -9.9942   -2.6856   60.3848 N.pl3   1  <0>        -0.7400
     15 C15        -9.0772   -2.2184   59.3421 C.3     1  <0>         0.0800
     16 C16        -9.8692   -1.4866   58.2569 C.3     1  <0>         0.4500
     17 F17       -10.6658   -2.4034   57.5625 F       1  <0>        -0.1800
     18 F18       -10.6839   -0.5154   58.8489 F       1  <0>        -0.1700
     19 F19        -8.9822   -0.8715   57.3668 F       1  <0>        -0.1800
     20 C20        -9.5446   -1.0804   62.1278 C.ar    1  <0>        -0.2000
     21 C21        -6.6843    0.0427   66.3225 C.2     1  <0>         0.4600
     22 O22        -6.8257   -0.9043   67.0593 O.2     1  <0>        -0.4600
     23 O23        -5.4773    0.3130   65.8011 O.3     1  <0>        -0.3500
     24 C24        -5.3810    1.4669   64.9252 C.3     1  <0>         0.0300
     25 H25       -10.2524    2.2028   66.2663 H       1  <0>         0.0600
     26 H26        -9.9794    2.8569   67.8990 H       1  <0>         0.0600
     27 H27        -8.9334    3.3636   66.5508 H       1  <0>         0.0800
     28 H28        -7.7854    1.7055   67.9935 H       1  <0>         0.0800
     29 H29        -9.1044    0.5447   67.7089 H       1  <0>         0.0800
     30 H30        -8.6318    1.2854   63.5028 H       1  <0>         0.4200
     31 H31       -11.7231    0.6487   64.0528 H       1  <0>         0.1400
     32 H32       -12.5231   -2.1834   60.9626 H       1  <0>         0.1400
     33 H33       -10.2834   -3.6113   60.3971 H       1  <0>         0.4100
     34 H34        -8.3461   -1.5385   59.7793 H       1  <0>         0.1100
     35 H35        -8.5618   -3.0723   58.9024 H       1  <0>         0.1100
     36 H36        -8.4838   -1.2109   61.9732 H       1  <0>         0.1500
     37 H37        -4.3545    1.5718   64.5738 H       1  <0>         0.1000
     38 H38        -6.0452    1.3316   64.0715 H       1  <0>         0.0600
     39 H39        -5.6710    2.3638   65.4725 H       1  <0>         0.0600
@<TRIPOS>BOND
     1     1     2    1
     2     1    25    1
     3     1    26    1
     4     1    27    1
     5     2     3    1
     6     2    28    1
     7     2    29    1
     8     3     4    1
     9     3     5    1
    10     3    21    1
    11     5     6    2
    12     5     7   am
    13     7     8    1
    14     7    30    1
    15     8    20   ar
    16     8     9   ar
    17     9    10   ar
    18     9    31    1
    19    10    11    1
    20    10    12   ar
    21    12    13   ar
    22    12    32    1
    23    13    14    1
    24    13    20   ar
    25    14    15    1
    26    14    33    1
    27    15    16    1
    28    15    34    1
    29    15    35    1
    30    16    17    1
    31    16    18    1
    32    16    19    1
    33    20    36    1
    34    21    22    2
    35    21    23    1
    36    23    24    1
    37    24    37    1
    38    24    38    1
    39    24    39    1
@<TRIPOS>SUBSTRUCTURE
     1 <0>         1 TEMP              0 ****  ****    0 ROOT


##########                                Name:    ZINC000045927156
##########                DOCK_Rotatable_Bonds:                   7
##########                         Heavy_Atoms:                  30
##########                    Molecular_Weight:             418.522
##########                DOCK_Rotatable_Bonds:                   7
##########                       Formal_Charge:           0.0200001
##########                     HBond_Acceptors:                   8
##########                        HBond_Donors:                   1
##########                         Heavy_Atoms:                  30
##########                          Grid_Score:          -33.209259
##########                     Grid_vdw_energy:          -32.446838
##########                      Grid_es_energy:           -0.762420
##########           Internal_energy_repulsive:           11.720653

@<TRIPOS>MOLECULE
ZINC000045927156
 52 56 1 0 0
SMALL
USER_CHARGES


@<TRIPOS>ATOM
      1 O1         -9.0708   -0.7934   57.2212 O.2     1  ZINC000045927156   -0.5800
      2 C2        -10.1412   -0.8402   56.6463 C.2     1  ZINC000045927156    0.7300
      3 N3        -10.4560    0.0976   55.7309 N.am    1  ZINC000045927156   -0.7400
      4 C4         -9.5109    1.1765   55.4327 C.3     1  ZINC000045927156    0.1700
      5 C5        -10.0611    2.0334   54.3218 C.ar    1  ZINC000045927156   -0.0700
      6 C6        -10.5996    3.2737   54.6077 C.ar    1  ZINC000045927156   -0.1000
      7 C7        -11.1044    4.0598   53.5886 C.ar    1  ZINC000045927156   -0.1100
      8 C8        -11.0699    3.6056   52.2837 C.ar    1  ZINC000045927156   -0.1100
      9 C9        -10.5303    2.3653   51.9975 C.ar    1  ZINC000045927156   -0.1000
     10 C10       -10.0218    1.5812   53.0158 C.ar    1  ZINC000045927156   -0.1000
     11 C11        -9.4336    0.2292   52.7039 C.3     1  ZINC000045927156    0.1700
     12 N12        -7.9998    0.3701   52.4384 N.pl3   1  ZINC000045927156   -0.3800
     13 C13        -7.2464   -0.4122   51.6461 C.2     1  ZINC000045927156    0.2500
     14 N14        -6.0202    0.0434   51.6733 N.2     1  ZINC000045927156   -0.5400
     15 C15        -5.9521    1.1106   52.4683 C.2     1  ZINC000045927156    0.2000
     16 N16        -7.1404    1.3531   52.9559 N.2     1  ZINC000045927156   -0.3100
     17 N17       -11.0106   -1.8328   56.9206 N.am    1  ZINC000045927156   -0.6200
     18 C18       -12.3346   -2.0121   56.2973 C.3     1  ZINC000045927156    0.1000
     19 C19       -12.6417   -3.5231   56.4462 C.3     1  ZINC000045927156   -0.1300
     20 C20       -12.0410   -3.8267   57.8442 C.3     1  ZINC000045927156   -0.1200
     21 C21       -10.7932   -2.9199   57.8863 C.3     1  ZINC000045927156    0.2300
     22 H22        -9.9082   -3.4942   57.6124 H       1  ZINC000045927156    0.1000
     23 C23       -10.6234   -2.3455   59.2692 C.2     1  ZINC000045927156    0.0900
     24 N24       -11.5097   -1.6476   59.8723 N.2     1  ZINC000045927156   -0.4500
     25 C25       -11.2220   -1.1979   61.1088 C.ar    1  ZINC000045927156    0.0800
     26 C26       -12.0018   -0.4195   61.9874 C.ar    1  ZINC000045927156   -0.0700
     27 C27       -11.5178   -0.0669   63.2109 C.ar    1  ZINC000045927156   -0.1100
     28 C28       -10.2520   -0.4660   63.6157 C.ar    1  ZINC000045927156   -0.1000
     29 C29        -9.4679   -1.2270   62.7780 C.ar    1  ZINC000045927156   -0.0700
     30 C30        -9.9462   -1.5970   61.5231 C.ar    1  ZINC000045927156   -0.1800
     31 S31        -9.2277   -2.5510   60.2293 S.3     1  ZINC000045927156    0.1200
     32 H32       -11.3083    0.0579   55.2694 H       1  ZINC000045927156    0.3900
     33 H33        -9.3637    1.7870   56.3236 H       1  ZINC000045927156    0.1000
     34 H34        -8.5572    0.7490   55.1235 H       1  ZINC000045927156    0.0700
     35 H35       -10.6266    3.6287   55.6274 H       1  ZINC000045927156    0.1300
     36 H36       -11.5258    5.0287   53.8121 H       1  ZINC000045927156    0.1300
     37 H37       -11.4648    4.2194   51.4876 H       1  ZINC000045927156    0.1300
     38 H38       -10.5037    2.0101   50.9779 H       1  ZINC000045927156    0.1300
     39 H39        -9.5819   -0.4364   53.5542 H       1  ZINC000045927156    0.1100
     40 H40        -9.9265   -0.1877   51.8257 H       1  ZINC000045927156    0.1000
     41 H41        -7.5927   -1.2678   51.0855 H       1  ZINC000045927156    0.2200
     42 H42        -5.0606    1.6848   52.6730 H       1  ZINC000045927156    0.2200
     43 H43       -13.0840   -1.4191   56.8215 H       1  ZINC000045927156    0.0700
     44 H44       -12.2986   -1.7344   55.2439 H       1  ZINC000045927156    0.0800
     45 H45       -13.7161   -3.7064   56.4344 H       1  ZINC000045927156    0.0900
     46 H46       -12.1396   -4.1021   55.6711 H       1  ZINC000045927156    0.0800
     47 H47       -12.7441   -3.5583   58.6327 H       1  ZINC000045927156    0.0900
     48 H48       -11.7554   -4.8757   57.9216 H       1  ZINC000045927156    0.0900
     49 H49       -12.9894   -0.1002   61.6887 H       1  ZINC000045927156    0.1300
     50 H50       -12.1263    0.5305   63.8736 H       1  ZINC000045927156    0.1400
     51 H51        -9.8814   -0.1789   64.5886 H       1  ZINC000045927156    0.1400
     52 H52        -8.4825   -1.5366   63.0935 H       1  ZINC000045927156    0.1300
@<TRIPOS>BOND
     1     1     2    2
     2     2     3   am
     3     2    17   am
     4     3     4    1
     5     3    32    1
     6     4     5    1
     7     4    33    1
     8     4    34    1
     9     5    10   ar
    10     5     6   ar
    11     6     7   ar
    12     6    35    1
    13     7     8   ar
    14     7    36    1
    15     8     9   ar
    16     8    37    1
    17     9    10   ar
    18     9    38    1
    19    10    11    1
    20    11    12    1
    21    11    39    1
    22    11    40    1
    23    12    16    1
    24    12    13    1
    25    13    14    2
    26    13    41    1
    27    14    15    1
    28    15    16    2
    29    15    42    1
    30    17    21    1
    31    17    18    1
    32    18    19    1
    33    18    43    1
    34    18    44    1
    35    19    20    1
    36    19    45    1
    37    19    46    1
    38    20    21    1
    39    20    47    1
    40    20    48    1
    41    21    22    1
    42    21    23    1
    43    23    31    1
    44    23    24    2
    45    24    25    1
    46    25    30   ar
    47    25    26   ar
    48    26    27   ar
    49    26    49    1
    50    27    28   ar
    51    27    50    1
    52    28    29   ar
    53    28    51    1
    54    29    30   ar
    55    29    52    1
    56    30    31    1
@<TRIPOS>SUBSTRUCTURE
     1 ZINC000045927156        1 TEMP              0 ****  ****    0 ROOT


##########                                Name:    ZINC000552360217
##########                DOCK_Rotatable_Bonds:                  13
##########                         Heavy_Atoms:                  27
##########                    Molecular_Weight:             401.484
##########                DOCK_Rotatable_Bonds:                  13
##########                       Formal_Charge:          -0.0100002
##########                     HBond_Acceptors:                  10
##########                        HBond_Donors:                   3
##########                         Heavy_Atoms:                  27
##########                          Grid_Score:          -33.202881
##########                     Grid_vdw_energy:          -29.026075
##########                      Grid_es_energy:           -4.176806
##########           Internal_energy_repulsive:           25.964666

@<TRIPOS>MOLECULE
ZINC000552360217
 54 54 1 0 0
SMALL
USER_CHARGES


@<TRIPOS>ATOM
      1 C1        -12.1348   -2.6911   59.2491 C.3     1  ZINC000552360217    0.0800
      2 N2        -10.9552   -2.1496   58.5696 N.am    1  ZINC000552360217   -1.0000
      3 C3        -11.0337   -1.7691   57.1572 C.3     1  ZINC000552360217    0.0900
      4 S4         -9.5330   -1.9678   59.3983 S.o2    1  ZINC000552360217    2.7000
      5 O5         -9.2414   -3.2324   59.9772 O.2     1  ZINC000552360217   -0.9500
      6 O6         -8.6424   -1.2897   58.5230 O.2     1  ZINC000552360217   -0.9500
      7 C7         -9.8473   -0.8678   60.7384 C.ar    1  ZINC000552360217   -0.6900
      8 C8        -10.7088    0.2009   60.5666 C.ar    1  ZINC000552360217    0.0100
      9 C9        -10.9614    1.0693   61.6140 C.ar    1  ZINC000552360217   -0.1400
     10 C10       -10.3548    0.8741   62.8374 C.ar    1  ZINC000552360217   -0.0300
     11 C11        -9.4844   -0.2024   63.0174 C.ar    1  ZINC000552360217   -0.1600
     12 C12        -8.8311   -0.4179   64.3260 C.2     1  ZINC000552360217    0.5600
     13 O13        -9.0031   -1.4605   64.9269 O.2     1  ZINC000552360217   -0.5300
     14 N14        -8.0448    0.5416   64.8528 N.am    1  ZINC000552360217   -0.7100
     15 C15        -7.3959    0.3273   66.1487 C.3     1  ZINC000552360217    0.1000
     16 C16        -6.2314    1.2734   66.2900 C.2     1  ZINC000552360217    0.5100
     17 O17        -5.1092    0.8979   66.0244 O.2     1  ZINC000552360217   -0.5400
     18 N18        -6.4371    2.5369   66.7118 N.am    1  ZINC000552360217   -0.7200
     19 C19        -5.3053    3.4571   66.8476 C.3     1  ZINC000552360217    0.1400
     20 C20        -5.0935    4.2031   65.5287 C.3     1  ZINC000552360217    0.1000
     21 C21        -3.9116    5.1643   65.6706 C.3     1  ZINC000552360217   -0.1800
     22 C22        -4.8012    3.1963   64.4145 C.3     1  ZINC000552360217   -0.1800
     23 O23        -6.2727    4.9427   65.2051 O.3     1  ZINC000552360217   -0.3700
     24 C24        -6.1796    5.6804   63.9848 C.3     1  ZINC000552360217    0.0600
     25 C25        -7.4909    6.4298   63.7405 C.3     1  ZINC000552360217    0.0800
     26 O26        -7.3977    7.1674   62.5202 O.3     1  ZINC000552360217   -0.5700
     27 C27        -9.2380   -1.0774   61.9585 C.ar    1  ZINC000552360217    0.0400
     28 H28       -12.1475   -3.7761   59.1459 H       1  ZINC000552360217    0.0600
     29 H29       -12.0985   -2.4270   60.3060 H       1  ZINC000552360217    0.0900
     30 H30       -13.0361   -2.2729   58.8008 H       1  ZINC000552360217    0.0800
     31 H31       -12.0405   -1.9591   56.7850 H       1  ZINC000552360217    0.0800
     32 H32       -10.8020   -0.7091   57.0530 H       1  ZINC000552360217    0.0700
     33 H33       -10.3172   -2.3558   56.5824 H       1  ZINC000552360217    0.0600
     34 H34       -11.1861    0.3584   59.6106 H       1  ZINC000552360217    0.1500
     35 H35       -11.6347    1.9019   61.4732 H       1  ZINC000552360217    0.1400
     36 H36       -10.5525    1.5527   63.6539 H       1  ZINC000552360217    0.1400
     37 H37        -7.9084    1.3741   64.3740 H       1  ZINC000552360217    0.4100
     38 H38        -8.1128    0.5115   66.9489 H       1  ZINC000552360217    0.1000
     39 H39        -7.0385   -0.7006   66.2106 H       1  ZINC000552360217    0.1000
     40 H40        -7.3344    2.8369   66.9254 H       1  ZINC000552360217    0.4100
     41 H41        -5.5135    4.1745   67.6415 H       1  ZINC000552360217    0.0800
     42 H42        -4.4059    2.8929   67.0944 H       1  ZINC000552360217    0.0900
     43 H43        -3.0122    4.6002   65.9174 H       1  ZINC000552360217    0.0700
     44 H44        -3.7608    5.6958   64.7310 H       1  ZINC000552360217    0.0700
     45 H45        -4.1198    5.8817   66.4644 H       1  ZINC000552360217    0.0700
     46 H46        -5.6432    2.5115   64.3134 H       1  ZINC000552360217    0.0600
     47 H47        -4.6503    3.7278   63.4748 H       1  ZINC000552360217    0.0700
     48 H48        -3.9018    2.6322   64.6613 H       1  ZINC000552360217    0.0700
     49 H49        -5.3598    6.3955   64.0541 H       1  ZINC000552360217    0.0600
     50 H50        -5.9941    4.9940   63.1586 H       1  ZINC000552360217    0.0700
     51 H51        -8.3106    5.7147   63.6712 H       1  ZINC000552360217    0.0600
     52 H52        -7.6764    7.1162   64.5667 H       1  ZINC000552360217    0.0500
     53 H53        -7.2324    6.6192   61.7409 H       1  ZINC000552360217    0.3800
     54 H54        -8.5657   -1.9120   62.0914 H       1  ZINC000552360217    0.1500
@<TRIPOS>BOND
     1     1     2    1
     2     1    28    1
     3     1    29    1
     4     1    30    1
     5     2     3    1
     6     2     4   am
     7     3    31    1
     8     3    32    1
     9     3    33    1
    10     4     5    2
    11     4     6    2
    12     4     7    1
    13     7    27   ar
    14     7     8   ar
    15     8     9   ar
    16     8    34    1
    17     9    10   ar
    18     9    35    1
    19    10    11   ar
    20    10    36    1
    21    11    12    1
    22    11    27   ar
    23    12    13    2
    24    12    14   am
    25    14    15    1
    26    14    37    1
    27    15    16    1
    28    15    38    1
    29    15    39    1
    30    16    17    2
    31    16    18   am
    32    18    19    1
    33    18    40    1
    34    19    20    1
    35    19    41    1
    36    19    42    1
    37    20    21    1
    38    20    22    1
    39    20    23    1
    40    21    43    1
    41    21    44    1
    42    21    45    1
    43    22    46    1
    44    22    47    1
    45    22    48    1
    46    23    24    1
    47    24    25    1
    48    24    49    1
    49    24    50    1
    50    25    26    1
    51    25    51    1
    52    25    52    1
    53    26    53    1
    54    27    54    1
@<TRIPOS>SUBSTRUCTURE
     1 ZINC000552360217        1 TEMP              0 ****  ****    0 ROOT


##########                                Name:    ZINC000263872566
##########                DOCK_Rotatable_Bonds:                   9
##########                         Heavy_Atoms:                  26
##########                    Molecular_Weight:             362.469
##########                DOCK_Rotatable_Bonds:                   9
##########                       Formal_Charge:           0.0300001
##########                     HBond_Acceptors:                   6
##########                        HBond_Donors:                   2
##########                         Heavy_Atoms:                  26
##########                          Grid_Score:          -33.128654
##########                     Grid_vdw_energy:          -31.794340
##########                      Grid_es_energy:           -1.334313
##########           Internal_energy_repulsive:           28.854233

@<TRIPOS>MOLECULE
ZINC000263872566
 56 57 1 0 0
SMALL
USER_CHARGES


@<TRIPOS>ATOM
      1 C1        -10.5392    0.1994   53.1397 C.3     1  ZINC000263872566   -0.1800
      2 C2         -9.3462   -0.6322   52.6642 C.3     1  ZINC000263872566    0.1400
      3 H3         -9.1517   -1.4310   53.3801 H       1  ZINC000263872566    0.0700
      4 O4         -9.6402   -1.1994   51.3860 O.3     1  ZINC000263872566   -0.5600
      5 C5         -8.1301    0.2509   52.5543 C.ar    1  ZINC000263872566   -0.0800
      6 C6         -7.8964    1.2267   53.5051 C.ar    1  ZINC000263872566   -0.0900
      7 C7         -6.7809    2.0370   53.4044 C.ar    1  ZINC000263872566   -0.1000
      8 C8         -5.8988    1.8709   52.3531 C.ar    1  ZINC000263872566   -0.1100
      9 C9         -4.6829    2.7544   52.2429 C.3     1  ZINC000263872566    0.1800
     10 N10        -3.6863    2.1087   51.3850 N.am    1  ZINC000263872566   -0.7400
     11 C11        -2.6256    2.8103   50.9386 C.2     1  ZINC000263872566    0.7100
     12 O12        -2.4959    3.9790   51.2479 O.2     1  ZINC000263872566   -0.5900
     13 N13        -1.7086    2.2164   50.1492 N.am    1  ZINC000263872566   -0.6300
     14 C14        -1.8548    0.8066   49.7620 C.3     1  ZINC000263872566    0.1100
     15 C15        -1.7776    0.7041   48.2355 C.3     1  ZINC000263872566   -0.1200
     16 C16        -0.4825    1.3585   47.7491 C.3     1  ZINC000263872566   -0.0800
     17 C17        -0.3867    1.2294   46.2507 C.2     1  ZINC000263872566    0.4700
     18 O18        -1.3722    1.3770   45.5673 O.2     1  ZINC000263872566   -0.5000
     19 O19         0.7934    0.9505   45.6752 O.3     1  ZINC000263872566   -0.3500
     20 C20         1.2479    1.8530   44.6324 C.3     1  ZINC000263872566    0.1200
     21 C21         2.7620    1.7141   44.4619 C.3     1  ZINC000263872566   -0.1800
     22 C22         0.5521    1.5023   43.3156 C.3     1  ZINC000263872566   -0.1400
     23 C23         0.9083    3.2933   45.0207 C.3     1  ZINC000263872566   -0.1800
     24 C24        -0.4814    2.8396   48.1343 C.3     1  ZINC000263872566   -0.1300
     25 C25        -0.5471    2.9681   49.6547 C.3     1  ZINC000263872566    0.1300
     26 C26        -6.1317    0.8941   51.4030 C.ar    1  ZINC000263872566   -0.1000
     27 C27        -7.2452    0.0815   51.5059 C.ar    1  ZINC000263872566   -0.1100
     28 H28       -10.7337    0.9980   52.4239 H       1  ZINC000263872566    0.0700
     29 H29       -11.4188   -0.4395   53.2193 H       1  ZINC000263872566    0.0600
     30 H30       -10.3150    0.6320   54.1147 H       1  ZINC000263872566    0.0700
     31 H31       -10.4125   -1.7814   51.3821 H       1  ZINC000263872566    0.3800
     32 H32        -8.5855    1.3565   54.3264 H       1  ZINC000263872566    0.1300
     33 H33        -6.5987    2.7998   54.1468 H       1  ZINC000263872566    0.1300
     34 H34        -4.9684    3.7132   51.8102 H       1  ZINC000263872566    0.0800
     35 H35        -4.2594    2.9149   53.2344 H       1  ZINC000263872566    0.0800
     36 H36        -3.7897    1.1764   51.1381 H       1  ZINC000263872566    0.4000
     37 H37        -1.0521    0.2199   50.2088 H       1  ZINC000263872566    0.0800
     38 H38        -2.8190    0.4315   50.1052 H       1  ZINC000263872566    0.0800
     39 H39        -1.7882   -0.3451   47.9403 H       1  ZINC000263872566    0.0900
     40 H40        -2.6322    1.2156   47.7928 H       1  ZINC000263872566    0.0800
     41 H41         0.3709    0.8625   48.2116 H       1  ZINC000263872566    0.1100
     42 H42         3.0039    0.6879   44.1852 H       1  ZINC000263872566    0.0600
     43 H43         3.1032    2.3915   43.6791 H       1  ZINC000263872566    0.0700
     44 H44         3.2577    1.9639   45.4001 H       1  ZINC000263872566    0.0800
     45 H45        -0.5265    1.6012   43.4370 H       1  ZINC000263872566    0.0700
     46 H46         0.8934    2.1797   42.5328 H       1  ZINC000263872566    0.0800
     47 H47         0.7941    0.4761   43.0389 H       1  ZINC000263872566    0.0700
     48 H48         1.4041    3.5432   45.9588 H       1  ZINC000263872566    0.0800
     49 H49         1.2495    3.9708   44.2379 H       1  ZINC000263872566    0.0700
     50 H50        -0.1703    3.3923   45.1422 H       1  ZINC000263872566    0.0600
     51 H51         0.4306    3.3103   47.7673 H       1  ZINC000263872566    0.0900
     52 H52        -1.3482    3.3310   47.6926 H       1  ZINC000263872566    0.0700
     53 H53        -0.6463    4.0184   49.9288 H       1  ZINC000263872566    0.1000
     54 H54         0.3612    2.5574   50.0957 H       1  ZINC000263872566    0.0700
     55 H55        -5.4424    0.7642   50.5818 H       1  ZINC000263872566    0.1300
     56 H56        -7.4272   -0.6816   50.7637 H       1  ZINC000263872566    0.1300
@<TRIPOS>BOND
     1     1     2    1
     2     1    28    1
     3     1    29    1
     4     1    30    1
     5     2     3    1
     6     2     4    1
     7     2     5    1
     8     4    31    1
     9     5    27   ar
    10     5     6   ar
    11     6     7   ar
    12     6    32    1
    13     7     8   ar
    14     7    33    1
    15     8     9    1
    16     8    26   ar
    17     9    10    1
    18     9    34    1
    19     9    35    1
    20    10    11   am
    21    10    36    1
    22    11    12    2
    23    11    13   am
    24    13    25    1
    25    13    14    1
    26    14    15    1
    27    14    37    1
    28    14    38    1
    29    15    16    1
    30    15    39    1
    31    15    40    1
    32    16    17    1
    33    16    24    1
    34    16    41    1
    35    17    18    2
    36    17    19    1
    37    19    20    1
    38    20    21    1
    39    20    22    1
    40    20    23    1
    41    21    42    1
    42    21    43    1
    43    21    44    1
    44    22    45    1
    45    22    46    1
    46    22    47    1
    47    23    48    1
    48    23    49    1
    49    23    50    1
    50    24    25    1
    51    24    51    1
    52    24    52    1
    53    25    53    1
    54    25    54    1
    55    26    27   ar
    56    26    55    1
    57    27    56    1
@<TRIPOS>SUBSTRUCTURE
     1 ZINC000263872566        1 TEMP              0 ****  ****    0 ROOT


##########                                Name:    ZINC000437192871
##########                DOCK_Rotatable_Bonds:                   9
##########                         Heavy_Atoms:                  28
##########                    Molecular_Weight:             423.298
##########                DOCK_Rotatable_Bonds:                   9
##########                       Formal_Charge:         -8.9407e-08
##########                     HBond_Acceptors:                   9
##########                        HBond_Donors:                   1
##########                         Heavy_Atoms:                  28
##########                          Grid_Score:          -33.123905
##########                     Grid_vdw_energy:          -32.490292
##########                      Grid_es_energy:           -0.633614
##########           Internal_energy_repulsive:           13.599121

@<TRIPOS>MOLECULE
ZINC000437192871
 48 50 1 0 0
SMALL
USER_CHARGES


@<TRIPOS>ATOM
      1 C1         -8.5310    0.2193   64.8907 C.3     1  ZINC000437192871   -0.1700
      2 C2         -9.8394    0.5535   64.1713 C.3     1  ZINC000437192871    0.1300
      3 N3        -10.1386   -0.4930   63.1907 N.pl3   1  ZINC000437192871   -0.3600
      4 C4        -11.3661   -0.8436   62.7532 C.2     1  ZINC000437192871    0.0700
      5 C5        -11.2139   -1.8456   61.8567 C.2     1  ZINC000437192871   -0.2700
      6 C6        -12.3218   -2.5452   61.1123 C.3     1  ZINC000437192871    0.1900
      7 N7        -13.3347   -1.5658   60.7109 N.am    1  ZINC000437192871   -0.6000
      8 C8        -14.5579   -1.4108   61.5020 C.3     1  ZINC000437192871    0.1100
      9 C9        -15.5601   -2.4985   61.1099 C.3     1  ZINC000437192871    0.0600
     10 O10       -16.6702   -2.4700   62.0092 O.3     1  ZINC000437192871   -0.5600
     11 C11       -13.1412   -0.8073   59.6137 C.2     1  ZINC000437192871    0.6000
     12 O12       -13.9821    0.0056   59.2803 O.2     1  ZINC000437192871   -0.5000
     13 C13       -11.9114   -0.9631   58.8184 C.2     1  ZINC000437192871   -0.2200
     14 C14       -10.7992   -0.1600   58.7963 C.2     1  ZINC000437192871    0.0100
     15 C15       -10.5781    1.0952   59.6006 C.3     1  ZINC000437192871   -0.0800
     16 O16        -9.9511   -0.7083   57.9233 O.3     1  ZINC000437192871    0.1100
     17 N17       -10.3739   -1.7167   57.4134 N.2     1  ZINC000437192871   -0.3200
     18 C18       -11.5676   -2.0270   57.8517 C.2     1  ZINC000437192871    0.0800
     19 C19       -12.3990   -3.1895   57.4569 C.ar    1  ZINC000437192871   -0.0200
     20 C20       -13.6047   -2.9915   56.7867 C.ar    1  ZINC000437192871   -0.0700
     21 C21       -14.3746   -4.0766   56.4209 C.ar    1  ZINC000437192871   -0.1000
     22 C22       -13.9517   -5.3610   56.7183 C.ar    1  ZINC000437192871   -0.0100
     23 Cl23      -14.9254   -6.7214   56.2545 Cl      1  ZINC000437192871   -0.0500
     24 C24       -12.7550   -5.5644   57.3839 C.ar    1  ZINC000437192871   -0.1100
     25 C25       -11.9742   -4.4859   57.7498 C.ar    1  ZINC000437192871    0.0000
     26 Cl26      -10.4733   -4.7417   58.5839 Cl      1  ZINC000437192871   -0.0300
     27 C27        -9.8465   -2.1167   61.7423 C.2     1  ZINC000437192871    0.0600
     28 N28        -9.2005   -1.3024   62.5371 N.2     1  ZINC000437192871   -0.2900
     29 H29        -8.3085    0.9979   65.6203 H       1  ZINC000437192871    0.0800
     30 H30        -8.6313   -0.7387   65.4008 H       1  ZINC000437192871    0.0600
     31 H31        -7.7213    0.1607   64.1634 H       1  ZINC000437192871    0.0700
     32 H32       -10.6492    0.6121   64.8987 H       1  ZINC000437192871    0.1000
     33 H33        -9.7392    1.5115   63.6612 H       1  ZINC000437192871    0.0900
     34 H34       -12.3023   -0.4034   63.0633 H       1  ZINC000437192871    0.1600
     35 H35       -11.9139   -3.0302   60.2255 H       1  ZINC000437192871    0.0900
     36 H36       -12.7774   -3.2947   61.7593 H       1  ZINC000437192871    0.0800
     37 H37       -14.3192   -1.5017   62.5617 H       1  ZINC000437192871    0.1000
     38 H38       -14.9928   -0.4299   61.3104 H       1  ZINC000437192871    0.1000
     39 H39       -15.9111   -2.3197   60.0936 H       1  ZINC000437192871    0.0600
     40 H40       -15.0761   -3.4739   61.1608 H       1  ZINC000437192871    0.0500
     41 H41       -17.1297   -1.6198   62.0401 H       1  ZINC000437192871    0.3800
     42 H42       -10.0259    0.8523   60.5085 H       1  ZINC000437192871    0.1000
     43 H43       -10.0071    1.8103   59.0084 H       1  ZINC000437192871    0.0900
     44 H44       -11.5412    1.5306   59.8667 H       1  ZINC000437192871    0.0900
     45 H45       -13.9362   -1.9903   56.5542 H       1  ZINC000437192871    0.1600
     46 H46       -15.3093   -3.9237   55.9018 H       1  ZINC000437192871    0.1500
     47 H47       -12.4296   -6.5683   57.6135 H       1  ZINC000437192871    0.1500
     48 H48        -9.4006   -2.8654   61.1045 H       1  ZINC000437192871    0.1800
@<TRIPOS>BOND
     1     1     2    1
     2     1    29    1
     3     1    30    1
     4     1    31    1
     5     2     3    1
     6     2    32    1
     7     2    33    1
     8     3    28    1
     9     3     4    1
    10     4     5    2
    11     4    34    1
    12     5     6    1
    13     5    27    1
    14     6     7    1
    15     6    35    1
    16     6    36    1
    17     7     8    1
    18     7    11   am
    19     8     9    1
    20     8    37    1
    21     8    38    1
    22     9    10    1
    23     9    39    1
    24     9    40    1
    25    10    41    1
    26    11    12    2
    27    11    13    1
    28    13    18    1
    29    13    14    2
    30    14    15    1
    31    14    16    1
    32    15    42    1
    33    15    43    1
    34    15    44    1
    35    16    17    1
    36    17    18    2
    37    18    19    1
    38    19    25   ar
    39    19    20   ar
    40    20    21   ar
    41    20    45    1
    42    21    22   ar
    43    21    46    1
    44    22    23    1
    45    22    24   ar
    46    24    25   ar
    47    24    47    1
    48    25    26    1
    49    27    28    2
    50    27    48    1
@<TRIPOS>SUBSTRUCTURE
     1 ZINC000437192871        1 TEMP              0 ****  ****    0 ROOT


##########                                Name:    ZINC000906038034
##########                DOCK_Rotatable_Bonds:                   5
##########                         Heavy_Atoms:                  23
##########                    Molecular_Weight:             387.428
##########                DOCK_Rotatable_Bonds:                   5
##########                       Formal_Charge:         -0.00999987
##########                     HBond_Acceptors:                  12
##########                        HBond_Donors:                   0
##########                         Heavy_Atoms:                  23
##########                          Grid_Score:          -33.120892
##########                     Grid_vdw_energy:          -29.219172
##########                      Grid_es_energy:           -3.901721
##########           Internal_energy_repulsive:            2.570362

@<TRIPOS>MOLECULE
ZINC000906038034
 35 36 1 0 0
SMALL
USER_CHARGES


@<TRIPOS>ATOM
      1 C1        -15.2210   -7.1863   56.0630 C.3     1  ZINC000906038034    0.1000
      2 N2        -14.4457   -5.9656   56.2984 N.pl3   1  ZINC000906038034   -0.3700
      3 C3        -14.7090   -4.7472   55.7782 C.2     1  ZINC000906038034    0.0600
      4 C4        -13.7702   -3.8883   56.2300 C.2     1  ZINC000906038034   -0.2500
      5 C5        -12.8910   -4.6089   57.0645 C.2     1  ZINC000906038034    0.1200
      6 C6        -11.7150   -4.0582   57.7723 C.2     1  ZINC000906038034    0.1500
      7 N7        -11.2951   -2.8279   57.6964 N.2     1  ZINC000906038034   -0.4300
      8 C8        -10.2291   -2.5165   58.3982 C.2     1  ZINC000906038034    0.0600
      9 C9         -9.6464   -1.1268   58.3945 C.3     1  ZINC000906038034   -0.5300
     10 S10       -10.5451   -0.0912   59.5822 S.o2    1  ZINC000906038034    2.4200
     11 O11       -10.1970    1.2672   59.3527 O.2     1  ZINC000906038034   -0.9100
     12 O12       -11.9150   -0.4686   59.5661 O.2     1  ZINC000906038034   -0.9200
     13 C13        -9.8199   -0.6151   61.1602 C.3     1  ZINC000906038034   -0.6100
     14 C14       -10.4507    0.1845   62.3019 C.3     1  ZINC000906038034   -0.4500
     15 S15        -9.3892    0.0837   63.7694 S.o     1  ZINC000906038034    1.3300
     16 O16        -9.3194   -1.2649   64.2118 O.2     1  ZINC000906038034   -0.7600
     17 C17       -10.2892    1.0755   64.9929 C.3     1  ZINC000906038034    0.1200
     18 F18       -11.5546    0.5181   65.2055 F       1  ZINC000906038034   -0.1900
     19 F19        -9.5773    1.0887   66.1972 F       1  ZINC000906038034   -0.1700
     20 F20       -10.4296    2.3846   64.5198 F       1  ZINC000906038034   -0.1600
     21 C21        -9.6937   -3.5088   59.1159 C.2     1  ZINC000906038034   -0.2300
     22 S22       -10.6614   -4.9593   58.8594 S.3     1  ZINC000906038034    0.1600
     23 N23       -13.3067   -5.8589   57.1066 N.2     1  ZINC000906038034   -0.2400
     24 H24       -16.0075   -7.2675   56.8133 H       1  ZINC000906038034    0.0800
     25 H25       -15.6689   -7.1465   55.0701 H       1  ZINC000906038034    0.0900
     26 H26       -14.5634   -8.0530   56.1306 H       1  ZINC000906038034    0.0900
     27 H27       -15.5268   -4.5029   55.1164 H       1  ZINC000906038034    0.1800
     28 H28       -13.7041   -2.8365   55.9939 H       1  ZINC000906038034    0.1600
     29 H29        -8.5944   -1.1731   58.6760 H       1  ZINC000906038034    0.1500
     30 H30        -9.7370   -0.6975   57.3967 H       1  ZINC000906038034    0.1600
     31 H31       -10.0097   -1.6776   61.3125 H       1  ZINC000906038034    0.1500
     32 H32        -8.7447   -0.4371   61.1428 H       1  ZINC000906038034    0.1500
     33 H33       -10.5562    1.2267   62.0006 H       1  ZINC000906038034    0.1600
     34 H34       -11.4327   -0.2274   62.5348 H       1  ZINC000906038034    0.1300
     35 H35        -8.8209   -3.4336   59.7476 H       1  ZINC000906038034    0.1900
@<TRIPOS>BOND
     1     1     2    1
     2     1    24    1
     3     1    25    1
     4     1    26    1
     5     2    23    1
     6     2     3    1
     7     3     4    2
     8     3    27    1
     9     4     5    1
    10     4    28    1
    11     5     6    1
    12     5    23    2
    13     6    22    1
    14     6     7    2
    15     7     8    1
    16     8     9    1
    17     8    21    2
    18     9    10    1
    19     9    29    1
    20     9    30    1
    21    10    11    2
    22    10    12    2
    23    10    13    1
    24    13    14    1
    25    13    31    1
    26    13    32    1
    27    14    15    1
    28    14    33    1
    29    14    34    1
    30    15    16    2
    31    15    17    1
    32    17    18    1
    33    17    19    1
    34    17    20    1
    35    21    22    1
    36    21    35    1
@<TRIPOS>SUBSTRUCTURE
     1 ZINC000906038034        1 TEMP              0 ****  ****    0 ROOT


##########                                Name:    ZINC001141221454
##########                DOCK_Rotatable_Bonds:                   7
##########                         Heavy_Atoms:                  27
##########                    Molecular_Weight:             369.439
##########                DOCK_Rotatable_Bonds:                   7
##########                       Formal_Charge:          0.00999935
##########                     HBond_Acceptors:                   6
##########                        HBond_Donors:                   1
##########                         Heavy_Atoms:                  27
##########                          Grid_Score:          -32.945763
##########                     Grid_vdw_energy:          -30.545101
##########                      Grid_es_energy:           -2.400662
##########           Internal_energy_repulsive:           12.819205

@<TRIPOS>MOLECULE
ZINC001141221454
 51 54 1 0 0
SMALL
USER_CHARGES


@<TRIPOS>ATOM
      1 C1        -14.8145   -6.3918   56.9997 C.3     1  ZINC001141221454    0.0300
      2 O2        -13.4486   -6.0437   57.2353 O.3     1  ZINC001141221454   -0.3100
      3 C3        -13.1321   -4.7222   57.1913 C.ar    1  ZINC001141221454    0.0900
      4 C4        -13.9940   -3.8215   56.5853 C.ar    1  ZINC001141221454   -0.1800
      5 C5        -13.6705   -2.4783   56.5422 C.ar    1  ZINC001141221454   -0.0900
      6 C6        -12.4884   -2.0318   57.1025 C.ar    1  ZINC001141221454   -0.1200
      7 C7        -11.6254   -2.9271   57.7077 C.ar    1  ZINC001141221454   -0.0800
      8 C8        -10.3373   -2.4369   58.3172 C.3     1  ZINC001141221454    0.0900
      9 N9        -10.5597   -2.1043   59.7306 N.3     1  ZINC001141221454   -0.5100
     10 C10        -9.2693   -1.9476   60.4503 C.3     1  ZINC001141221454    0.0300
     11 C11        -9.6538   -1.1071   61.6958 C.3     1  ZINC001141221454   -0.0700
     12 C12       -10.7168   -0.1427   61.1385 C.3     1  ZINC001141221454   -0.1000
     13 C13       -10.5419    1.3671   61.2385 C.3     1  ZINC001141221454   -0.1400
     14 C14       -11.6184    0.6600   62.0672 C.3     1  ZINC001141221454   -0.1800
     15 H15       -12.6568    0.7974   61.7661 H       1  ZINC001141221454    0.1300
     16 C16       -11.3829    0.5314   63.5501 C.2     1  ZINC001141221454    0.5500
     17 O17       -11.7871   -0.4446   64.1459 O.2     1  ZINC001141221454   -0.5300
     18 N18       -10.7230    1.5009   64.2142 N.am    1  ZINC001141221454   -0.7300
     19 C19       -10.4956    1.3767   65.6561 C.3     1  ZINC001141221454    0.1700
     20 C20        -9.0721    0.9490   65.9052 C.ar    1  ZINC001141221454   -0.1600
     21 C21        -8.0483    1.8837   65.9064 C.ar    1  ZINC001141221454   -0.0600
     22 C22        -6.7541    1.4445   66.1407 C.ar    1  ZINC001141221454   -0.1700
     23 C23        -6.5293    0.0994   66.3634 C.ar    1  ZINC001141221454    0.1100
     24 N24        -7.5281   -0.7619   66.3549 N.ar    1  ZINC001141221454   -0.4800
     25 C25        -8.7717   -0.3794   66.1410 C.ar    1  ZINC001141221454    0.1200
     26 C26       -11.2594   -0.8062   59.8667 C.3     1  ZINC001141221454    0.0700
     27 C27       -11.9467   -4.2712   57.7588 C.ar    1  ZINC001141221454    0.0900
     28 F28       -11.1039   -5.1462   58.3499 F       1  ZINC001141221454   -0.1300
     29 H29       -14.9299   -7.4738   57.0634 H       1  ZINC001141221454    0.1000
     30 H30       -15.4456   -5.9143   57.7493 H       1  ZINC001141221454    0.0600
     31 H31       -15.1098   -6.0527   56.0067 H       1  ZINC001141221454    0.0600
     32 H32       -14.9177   -4.1690   56.1468 H       1  ZINC001141221454    0.1400
     33 H33       -14.3420   -1.7768   56.0697 H       1  ZINC001141221454    0.1300
     34 H34       -12.2382   -0.9818   57.0674 H       1  ZINC001141221454    0.1300
     35 H35        -9.5798   -3.2170   58.2423 H       1  ZINC001141221454    0.0600
     36 H36        -9.9981   -1.5488   57.7840 H       1  ZINC001141221454    0.0900
     37 H37        -8.8755   -2.9192   60.7490 H       1  ZINC001141221454    0.0800
     38 H38        -8.5476   -1.4124   59.8332 H       1  ZINC001141221454    0.0500
     39 H39       -10.0777   -1.7414   62.4742 H       1  ZINC001141221454    0.0900
     40 H40        -8.7914   -0.5565   62.0715 H       1  ZINC001141221454    0.0700
     41 H41        -9.6633    1.7383   61.7660 H       1  ZINC001141221454    0.1000
     42 H42       -10.8725    1.9695   60.3924 H       1  ZINC001141221454    0.1100
     43 H43       -10.3986    2.2809   63.7375 H       1  ZINC001141221454    0.4000
     44 H44       -10.6753    2.3384   66.1365 H       1  ZINC001141221454    0.0800
     45 H45       -11.1761    0.6318   66.0684 H       1  ZINC001141221454    0.0800
     46 H46        -8.2538    2.9290   65.7289 H       1  ZINC001141221454    0.1400
     47 H47        -5.9320    2.1449   66.1485 H       1  ZINC001141221454    0.1400
     48 H48        -5.5242   -0.2507   66.5462 H       1  ZINC001141221454    0.1600
     49 H49        -9.5635   -1.1138   66.1414 H       1  ZINC001141221454    0.1600
     50 H50       -11.0515   -0.1779   59.0005 H       1  ZINC001141221454    0.0500
     51 H51       -12.3331   -0.9692   59.9602 H       1  ZINC001141221454    0.0900
@<TRIPOS>BOND
     1     1     2    1
     2     1    29    1
     3     1    30    1
     4     1    31    1
     5     2     3    1
     6     3    27   ar
     7     3     4   ar
     8     4     5   ar
     9     4    32    1
    10     5     6   ar
    11     5    33    1
    12     6     7   ar
    13     6    34    1
    14     7     8    1
    15     7    27   ar
    16     8     9    1
    17     8    35    1
    18     8    36    1
    19     9    26    1
    20     9    10    1
    21    10    11    1
    22    10    37    1
    23    10    38    1
    24    11    12    1
    25    11    39    1
    26    11    40    1
    27    12    14    1
    28    12    13    1
    29    12    26    1
    30    13    14    1
    31    13    41    1
    32    13    42    1
    33    14    15    1
    34    14    16    1
    35    16    17    2
    36    16    18   am
    37    18    19    1
    38    18    43    1
    39    19    20    1
    40    19    44    1
    41    19    45    1
    42    20    25   ar
    43    20    21   ar
    44    21    22   ar
    45    21    46    1
    46    22    23   ar
    47    22    47    1
    48    23    24   ar
    49    23    48    1
    50    24    25   ar
    51    25    49    1
    52    26    50    1
    53    26    51    1
    54    27    28    1
@<TRIPOS>SUBSTRUCTURE
     1 ZINC001141221454        1 TEMP              0 ****  ****    0 ROOT


##########                                Name:    ZINC000428748914
##########                DOCK_Rotatable_Bonds:                  11
##########                         Heavy_Atoms:                  30
##########                    Molecular_Weight:             413.492
##########                DOCK_Rotatable_Bonds:                  11
##########                       Formal_Charge:           0.0199993
##########                     HBond_Acceptors:                   7
##########                        HBond_Donors:                   3
##########                         Heavy_Atoms:                  30
##########                          Grid_Score:          -32.919243
##########                     Grid_vdw_energy:          -31.402197
##########                      Grid_es_energy:           -1.517048
##########           Internal_energy_repulsive:           31.447458

@<TRIPOS>MOLECULE
ZINC000428748914
 58 61 1 0 0
SMALL
USER_CHARGES


@<TRIPOS>ATOM
      1 O1        -12.3892   -5.2956   57.3880 O.2     1  ZINC000428748914   -0.5900
      2 C2        -13.0056   -4.2644   57.5758 C.2     1  ZINC000428748914    0.7000
      3 N3        -14.3529   -4.2683   57.5385 N.am    1  ZINC000428748914   -0.7400
      4 C4        -15.0745   -5.5139   57.2659 C.3     1  ZINC000428748914    0.1900
      5 C5        -15.3977   -5.5958   55.7963 C.ar    1  ZINC000428748914   -0.2000
      6 C6        -15.0444   -6.7193   55.0620 C.ar    1  ZINC000428748914   -0.0200
      7 C7        -15.3601   -6.7536   53.7148 C.ar    1  ZINC000428748914   -0.1900
      8 C8        -16.0159   -5.6692   53.1466 C.ar    1  ZINC000428748914    0.3300
      9 O9        -16.3313   -5.6908   51.8271 O.3     1  ZINC000428748914   -0.3000
     10 C10       -17.6713   -5.3411   51.4748 C.3     1  ZINC000428748914    0.0800
     11 C11       -18.6719   -5.9228   52.5041 C.3     1  ZINC000428748914   -0.1400
     12 C12       -19.9013   -4.9936   52.3485 C.3     1  ZINC000428748914   -0.1200
     13 C13       -19.2919   -3.5939   52.1265 C.3     1  ZINC000428748914   -0.1200
     14 C14       -17.8740   -3.8149   51.5710 C.3     1  ZINC000428748914   -0.1200
     15 N15       -16.3362   -4.6157   53.8796 N.ar    1  ZINC000428748914   -0.5400
     16 C16       -16.0538   -4.5564   55.1670 C.ar    1  ZINC000428748914    0.1600
     17 N17       -12.3418   -3.1186   57.8266 N.am    1  ZINC000428748914   -0.7400
     18 C18       -10.8773   -3.1143   57.8672 C.3     1  ZINC000428748914    0.1800
     19 C19       -10.3987   -2.0898   58.8978 C.3     1  ZINC000428748914   -0.1300
     20 C20       -10.9917   -0.6864   58.7577 C.3     1  ZINC000428748914    0.1100
     21 O21       -11.3587   -0.4581   57.3956 O.3     1  ZINC000428748914   -0.5700
     22 C22        -8.9527   -2.2008   59.3853 C.3     1  ZINC000428748914   -0.1400
     23 C23       -10.1049   -2.5946   60.3118 C.3     1  ZINC000428748914   -0.1000
     24 H24       -10.2524   -3.6566   60.5079 H       1  ZINC000428748914    0.1200
     25 C25       -10.4207   -1.6715   61.4604 C.ar    1  ZINC000428748914   -0.0700
     26 C26        -9.3992   -1.0085   62.1148 C.ar    1  ZINC000428748914   -0.0900
     27 C27        -9.6877   -0.1618   63.1682 C.ar    1  ZINC000428748914   -0.1500
     28 C28       -11.0005    0.0228   63.5677 C.ar    1  ZINC000428748914    0.1000
     29 F29       -11.2837    0.8507   64.5971 F       1  ZINC000428748914   -0.1400
     30 C30       -12.0228   -0.6413   62.9113 C.ar    1  ZINC000428748914   -0.1500
     31 C31       -11.7323   -1.4839   61.8551 C.ar    1  ZINC000428748914   -0.0800
     32 H32       -14.8447   -3.4466   57.6922 H       1  ZINC000428748914    0.4000
     33 H33       -14.4529   -6.3633   57.5491 H       1  ZINC000428748914    0.0800
     34 H34       -15.9991   -5.5319   57.8429 H       1  ZINC000428748914    0.0800
     35 H35       -14.5344   -7.5477   55.5310 H       1  ZINC000428748914    0.1400
     36 H36       -15.0996   -7.6120   53.1133 H       1  ZINC000428748914    0.1400
     37 H37       -17.9053   -5.6944   50.4705 H       1  ZINC000428748914    0.1000
     38 H38       -18.9307   -6.9513   52.2525 H       1  ZINC000428748914    0.0700
     39 H39       -18.2666   -5.8614   53.5141 H       1  ZINC000428748914    0.0800
     40 H40       -20.4977   -5.2912   51.4861 H       1  ZINC000428748914    0.0700
     41 H41       -20.5066   -5.0068   53.2549 H       1  ZINC000428748914    0.0700
     42 H42       -19.8916   -3.0352   51.4080 H       1  ZINC000428748914    0.0700
     43 H43       -19.2425   -3.0540   53.0721 H       1  ZINC000428748914    0.0700
     44 H44       -17.1365   -3.3821   52.2470 H       1  ZINC000428748914    0.0800
     45 H45       -17.7857   -3.3634   50.5828 H       1  ZINC000428748914    0.0700
     46 H46       -16.3311   -3.6799   55.7339 H       1  ZINC000428748914    0.1600
     47 H47       -12.8336   -2.2968   57.9803 H       1  ZINC000428748914    0.3900
     48 H48       -10.5187   -4.1051   58.1460 H       1  ZINC000428748914    0.0700
     49 H49       -10.4875   -2.8502   56.8841 H       1  ZINC000428748914    0.0900
     50 H50       -11.8745   -0.6000   59.3912 H       1  ZINC000428748914    0.0500
     51 H51       -10.2515    0.0530   59.0634 H       1  ZINC000428748914    0.0600
     52 H52       -11.5410    0.4685   57.1874 H       1  ZINC000428748914    0.3800
     53 H53        -8.3424   -3.0037   58.9718 H       1  ZINC000428748914    0.1100
     54 H54        -8.4235   -1.2739   59.6062 H       1  ZINC000428748914    0.1100
     55 H55        -8.3753   -1.1528   61.8029 H       1  ZINC000428748914    0.1400
     56 H56        -8.8895    0.3554   63.6797 H       1  ZINC000428748914    0.1400
     57 H57       -13.0471   -0.4983   63.2223 H       1  ZINC000428748914    0.1400
     58 H58       -12.5295   -2.0017   61.3427 H       1  ZINC000428748914    0.1300
@<TRIPOS>BOND
     1     1     2    2
     2     2     3   am
     3     2    17   am
     4     3     4    1
     5     3    32    1
     6     4     5    1
     7     4    33    1
     8     4    34    1
     9     5    16   ar
    10     5     6   ar
    11     6     7   ar
    12     6    35    1
    13     7     8   ar
    14     7    36    1
    15     8     9    1
    16     8    15   ar
    17     9    10    1
    18    10    14    1
    19    10    11    1
    20    10    37    1
    21    11    12    1
    22    11    38    1
    23    11    39    1
    24    12    13    1
    25    12    40    1
    26    12    41    1
    27    13    14    1
    28    13    42    1
    29    13    43    1
    30    14    44    1
    31    14    45    1
    32    15    16   ar
    33    16    46    1
    34    17    18    1
    35    17    47    1
    36    18    19    1
    37    18    48    1
    38    18    49    1
    39    19    23    1
    40    19    20    1
    41    19    22    1
    42    20    21    1
    43    20    50    1
    44    20    51    1
    45    21    52    1
    46    22    23    1
    47    22    53    1
    48    22    54    1
    49    23    24    1
    50    23    25    1
    51    25    31   ar
    52    25    26   ar
    53    26    27   ar
    54    26    55    1
    55    27    28   ar
    56    27    56    1
    57    28    29    1
    58    28    30   ar
    59    30    31   ar
    60    30    57    1
    61    31    58    1
@<TRIPOS>SUBSTRUCTURE
     1 ZINC000428748914        1 TEMP              0 ****  ****    0 ROOT


##########                                Name:    ZINC000124554441
##########                DOCK_Rotatable_Bonds:                   9
##########                         Heavy_Atoms:                  26
##########                    Molecular_Weight:             375.898
##########                DOCK_Rotatable_Bonds:                   9
##########                       Formal_Charge:         -0.00999991
##########                     HBond_Acceptors:                   6
##########                        HBond_Donors:                   1
##########                         Heavy_Atoms:                  26
##########                          Grid_Score:          -32.919025
##########                     Grid_vdw_energy:          -32.836445
##########                      Grid_es_energy:           -0.082580
##########           Internal_energy_repulsive:           15.822346

@<TRIPOS>MOLECULE
ZINC000124554441
 52 53 1 0 0
SMALL
USER_CHARGES


@<TRIPOS>ATOM
      1 C1        -16.8826   -2.2359   57.0758 C.3     1  ZINC000124554441   -0.1500
      2 C2        -17.2952   -2.4084   58.5390 C.3     1  ZINC000124554441   -0.1300
      3 C3        -16.2181   -3.2005   59.2826 C.3     1  ZINC000124554441   -0.1200
      4 C4        -16.7099   -3.5299   60.6935 C.3     1  ZINC000124554441   -0.1200
      5 C5        -16.6827   -2.2635   61.5517 C.3     1  ZINC000124554441   -0.1300
      6 C6        -15.5948   -2.3943   62.6195 C.3     1  ZINC000124554441    0.1200
      7 N7        -14.2783   -2.2309   61.9980 N.am    1  ZINC000124554441   -0.7300
      8 C8        -13.5923   -1.0827   62.1643 C.2     1  ZINC000124554441    0.5200
      9 O9        -14.0656   -0.1843   62.8274 O.2     1  ZINC000124554441   -0.5300
     10 C10       -12.2372   -0.9154   61.5265 C.3     1  ZINC000124554441   -0.1200
     11 H11       -12.3107   -0.2148   60.6947 H       1  ZINC000124554441    0.1000
     12 C12       -11.2481   -0.3765   62.5625 C.3     1  ZINC000124554441   -0.1000
     13 C13        -9.8798   -0.1751   61.9074 C.3     1  ZINC000124554441   -0.1400
     14 C14        -9.3592   -1.5225   61.3970 C.3     1  ZINC000124554441    0.0900
     15 N15       -10.3707   -2.1156   60.5116 N.am    1  ZINC000124554441   -0.6000
     16 C16       -10.0455   -2.5098   59.2646 C.2     1  ZINC000124554441    0.5600
     17 O17        -8.9063   -2.3761   58.8626 O.2     1  ZINC000124554441   -0.5200
     18 C18       -11.0750   -3.1052   58.3850 C.ar    1  ZINC000124554441   -0.0900
     19 C19       -11.3986   -4.4581   58.5061 C.ar    1  ZINC000124554441   -0.0900
     20 C20       -12.3570   -5.0136   57.6878 C.ar    1  ZINC000124554441   -0.0600
     21 C21       -13.0056   -4.2241   56.7357 C.ar    1  ZINC000124554441    0.0100
     22 C22       -14.0021   -4.8015   55.8848 C.1     1  ZINC000124554441    0.2400
     23 N23       -14.7927   -5.2598   55.2098 N.1     1  ZINC000124554441   -0.3800
     24 C24       -12.6819   -2.8693   56.6141 C.ar    1  ZINC000124554441    0.0000
     25 Cl25      -13.4877   -1.8865   55.4315 Cl      1  ZINC000124554441   -0.0400
     26 C26       -11.7266   -2.3130   57.4381 C.ar    1  ZINC000124554441   -0.0600
     27 C27       -11.7437   -2.2710   61.0111 C.3     1  ZINC000124554441    0.1200
     28 H28       -15.9362   -1.6972   57.0263 H       1  ZINC000124554441    0.0500
     29 H29       -16.7674   -3.2159   56.6127 H       1  ZINC000124554441    0.0500
     30 H30       -17.6500   -1.6716   56.5460 H       1  ZINC000124554441    0.0500
     31 H31       -17.4103   -1.4284   59.0020 H       1  ZINC000124554441    0.0600
     32 H32       -18.2416   -2.9471   58.5885 H       1  ZINC000124554441    0.0600
     33 H33       -16.0110   -4.1257   58.7449 H       1  ZINC000124554441    0.0600
     34 H34       -15.3072   -2.6050   59.3451 H       1  ZINC000124554441    0.0600
     35 H35       -17.7293   -3.9125   60.6429 H       1  ZINC000124554441    0.0700
     36 H36       -16.0604   -4.2840   61.1379 H       1  ZINC000124554441    0.0700
     37 H37       -16.4697   -1.4011   60.9200 H       1  ZINC000124554441    0.0700
     38 H38       -17.6510   -2.1304   62.0339 H       1  ZINC000124554441    0.0700
     39 H39       -15.7363   -1.6249   63.3785 H       1  ZINC000124554441    0.0700
     40 H40       -15.6577   -3.3785   63.0837 H       1  ZINC000124554441    0.0700
     41 H41       -13.9002   -2.9490   61.4666 H       1  ZINC000124554441    0.4000
     42 H42       -11.6098    0.5766   62.9484 H       1  ZINC000124554441    0.0800
     43 H43       -11.1568   -1.0889   63.3824 H       1  ZINC000124554441    0.0800
     44 H44        -9.9750    0.5183   61.0718 H       1  ZINC000124554441    0.0700
     45 H45        -9.1819    0.2307   62.6398 H       1  ZINC000124554441    0.0900
     46 H46        -8.4328   -1.3702   60.8430 H       1  ZINC000124554441    0.1000
     47 H47        -9.1774   -2.1875   62.2413 H       1  ZINC000124554441    0.0800
     48 H48       -10.8968   -5.0693   59.2417 H       1  ZINC000124554441    0.1500
     49 H49       -12.6068   -6.0601   57.7821 H       1  ZINC000124554441    0.1500
     50 H50       -11.4760   -1.2667   57.3449 H       1  ZINC000124554441    0.1500
     51 H51       -11.7569   -2.9969   61.8240 H       1  ZINC000124554441    0.0800
     52 H52       -12.3902   -2.6128   60.2027 H       1  ZINC000124554441    0.1000
@<TRIPOS>BOND
     1     1     2    1
     2     1    28    1
     3     1    29    1
     4     1    30    1
     5     2     3    1
     6     2    31    1
     7     2    32    1
     8     3     4    1
     9     3    33    1
    10     3    34    1
    11     4     5    1
    12     4    35    1
    13     4    36    1
    14     5     6    1
    15     5    37    1
    16     5    38    1
    17     6     7    1
    18     6    39    1
    19     6    40    1
    20     7     8   am
    21     7    41    1
    22     8     9    2
    23     8    10    1
    24    10    11    1
    25    10    27    1
    26    10    12    1
    27    12    13    1
    28    12    42    1
    29    12    43    1
    30    13    14    1
    31    13    44    1
    32    13    45    1
    33    14    15    1
    34    14    46    1
    35    14    47    1
    36    15    16   am
    37    15    27    1
    38    16    17    2
    39    16    18    1
    40    18    26   ar
    41    18    19   ar
    42    19    20   ar
    43    19    48    1
    44    20    21   ar
    45    20    49    1
    46    21    22    1
    47    21    24   ar
    48    22    23    3
    49    24    25    1
    50    24    26   ar
    51    26    50    1
    52    27    51    1
    53    27    52    1
@<TRIPOS>SUBSTRUCTURE
     1 ZINC000124554441        1 TEMP              0 ****  ****    0 ROOT


##########                                Name:    ZINC000929592477
##########                DOCK_Rotatable_Bonds:                   7
##########                         Heavy_Atoms:                  28
##########                    Molecular_Weight:             399.517
##########                DOCK_Rotatable_Bonds:                   7
##########                       Formal_Charge:         -8.9407e-08
##########                     HBond_Acceptors:                   8
##########                        HBond_Donors:                   3
##########                         Heavy_Atoms:                  28
##########                          Grid_Score:          -32.918415
##########                     Grid_vdw_energy:          -31.466204
##########                      Grid_es_energy:           -1.452210
##########           Internal_energy_repulsive:           73.694397

@<TRIPOS>MOLECULE
ZINC000929592477
 53 56 1 0 0
SMALL
USER_CHARGES


@<TRIPOS>ATOM
      1 O1        -12.6984   -3.7529   55.9859 O.2     1  ZINC000929592477   -0.5700
      2 C2        -13.0341   -4.1207   57.0953 C.2     1  ZINC000929592477    0.7100
      3 N3        -14.1129   -4.9147   57.2441 N.am    1  ZINC000929592477   -0.6800
      4 C4        -14.8515   -5.3118   56.1206 C.ar    1  ZINC000929592477    0.1600
      5 C5        -14.9009   -6.6519   55.7607 C.ar    1  ZINC000929592477   -0.1300
      6 C6        -15.6276   -7.0434   54.6541 C.ar    1  ZINC000929592477   -0.0800
      7 C7        -16.3101   -6.0962   53.9008 C.ar    1  ZINC000929592477   -0.1000
      8 S8        -17.2384   -6.5952   52.4889 S.3     1  ZINC000929592477   -0.1100
      9 C9        -18.0117   -5.0484   51.9413 C.3     1  ZINC000929592477   -0.0800
     10 C10       -16.9343   -4.0423   51.4659 C.3     1  ZINC000929592477   -0.1200
     11 C11       -17.7299   -3.1126   50.5164 C.3     1  ZINC000929592477   -0.1200
     12 C12       -18.7007   -4.0615   49.7837 C.3     1  ZINC000929592477   -0.1200
     13 C13       -18.8800   -5.2923   50.6897 C.3     1  ZINC000929592477   -0.1000
     14 C14       -16.2608   -4.7554   54.2617 C.ar    1  ZINC000929592477   -0.1200
     15 C15       -15.5380   -4.3656   55.3714 C.ar    1  ZINC000929592477   -0.1000
     16 N16       -12.3241   -3.7390   58.1754 N.am    1  ZINC000929592477   -0.7300
     17 C17       -11.1514   -2.8759   58.0135 C.3     1  ZINC000929592477    0.1500
     18 H18       -11.0106   -2.6115   56.9656 H       1  ZINC000929592477    0.1200
     19 C19        -9.8816   -3.5630   58.5817 C.3     1  ZINC000929592477   -0.1400
     20 C20        -9.9987   -3.2336   60.0909 C.3     1  ZINC000929592477    0.1100
     21 N21       -10.5495   -1.8670   60.1373 N.pl3   1  ZINC000929592477   -0.6000
     22 C22       -10.4030   -0.9759   61.1806 C.2     1  ZINC000929592477    0.4600
     23 C23        -9.9802   -1.4197   62.4225 C.2     1  ZINC000929592477   -0.4000
     24 C24        -9.8443   -0.4820   63.4556 C.2     1  ZINC000929592477    0.5300
     25 O25        -9.4742   -0.8291   64.5659 O.2     1  ZINC000929592477   -0.5500
     26 N26       -10.1301    0.8117   63.1992 N.am    1  ZINC000929592477   -0.6400
     27 C27       -10.5379    1.1875   61.9707 C.2     1  ZINC000929592477    0.4100
     28 N28       -10.6640    0.3280   60.9973 N.2     1  ZINC000929592477   -0.5700
     29 C29       -11.2823   -1.6081   58.8837 C.3     1  ZINC000929592477    0.1100
     30 H30       -14.3784   -5.2115   58.1287 H       1  ZINC000929592477    0.4100
     31 H31       -14.3703   -7.3881   56.3462 H       1  ZINC000929592477    0.1300
     32 H32       -15.6654   -8.0857   54.3738 H       1  ZINC000929592477    0.1300
     33 H33       -18.6111   -4.6178   52.7433 H       1  ZINC000929592477    0.1000
     34 H34       -16.5317   -3.4805   52.3089 H       1  ZINC000929592477    0.0700
     35 H35       -16.1379   -4.5552   50.9266 H       1  ZINC000929592477    0.0800
     36 H36       -18.2833   -2.3672   51.0876 H       1  ZINC000929592477    0.0700
     37 H37       -17.0595   -2.6294   49.8056 H       1  ZINC000929592477    0.0700
     38 H38       -19.6604   -3.5680   49.6302 H       1  ZINC000929592477    0.0700
     39 H39       -18.2772   -4.3618   48.8253 H       1  ZINC000929592477    0.0700
     40 H40       -18.5433   -6.1899   50.1710 H       1  ZINC000929592477    0.0700
     41 H41       -19.9265   -5.3961   50.9757 H       1  ZINC000929592477    0.0800
     42 H42       -16.7912   -4.0187   53.6765 H       1  ZINC000929592477    0.1300
     43 H43       -15.4999   -3.3234   55.6522 H       1  ZINC000929592477    0.1400
     44 H44       -12.5896   -4.0356   59.0599 H       1  ZINC000929592477    0.4000
     45 H45        -9.9114   -4.6396   58.4133 H       1  ZINC000929592477    0.0900
     46 H46        -8.9779   -3.1274   58.1557 H       1  ZINC000929592477    0.0900
     47 H47       -10.6767   -3.9329   60.5802 H       1  ZINC000929592477    0.0700
     48 H48        -9.0166   -3.2630   60.5629 H       1  ZINC000929592477    0.0800
     49 H49        -9.7608   -2.4636   62.5912 H       1  ZINC000929592477    0.1500
     50 H50       -10.0420    1.4741   63.9024 H       1  ZINC000929592477    0.4200
     51 H51       -10.7620    2.2278   61.7861 H       1  ZINC000929592477    0.2100
     52 H52       -10.8436   -0.7543   58.3675 H       1  ZINC000929592477    0.0900
     53 H53       -12.3322   -1.4130   59.1016 H       1  ZINC000929592477    0.0800
@<TRIPOS>BOND
     1     1     2    2
     2     2     3   am
     3     2    16   am
     4     3     4    1
     5     3    30    1
     6     4    15   ar
     7     4     5   ar
     8     5     6   ar
     9     5    31    1
    10     6     7   ar
    11     6    32    1
    12     7     8    1
    13     7    14   ar
    14     8     9    1
    15     9    13    1
    16     9    10    1
    17     9    33    1
    18    10    11    1
    19    10    34    1
    20    10    35    1
    21    11    12    1
    22    11    36    1
    23    11    37    1
    24    12    13    1
    25    12    38    1
    26    12    39    1
    27    13    40    1
    28    13    41    1
    29    14    15   ar
    30    14    42    1
    31    15    43    1
    32    16    17    1
    33    16    44    1
    34    17    18    1
    35    17    29    1
    36    17    19    1
    37    19    20    1
    38    19    45    1
    39    19    46    1
    40    20    21    1
    41    20    47    1
    42    20    48    1
    43    21    22    1
    44    21    29    1
    45    22    28    1
    46    22    23    2
    47    23    24    1
    48    23    49    1
    49    24    25    2
    50    24    26   am
    51    26    27    1
    52    26    50    1
    53    27    28    2
    54    27    51    1
    55    29    52    1
    56    29    53    1
@<TRIPOS>SUBSTRUCTURE
     1 ZINC000929592477        1 TEMP              0 ****  ****    0 ROOT


##########                                Name:    ZINC000809503567
##########                DOCK_Rotatable_Bonds:                   9
##########                         Heavy_Atoms:                  26
##########                    Molecular_Weight:             353.378
##########                DOCK_Rotatable_Bonds:                   9
##########                       Formal_Charge:          -0.0200002
##########                     HBond_Acceptors:                   7
##########                        HBond_Donors:                   1
##########                         Heavy_Atoms:                  26
##########                          Grid_Score:          -32.815178
##########                     Grid_vdw_energy:          -31.027380
##########                      Grid_es_energy:           -1.787796
##########           Internal_energy_repulsive:           16.381723

@<TRIPOS>MOLECULE
ZINC000809503567
 45 46 1 0 0
SMALL
USER_CHARGES


@<TRIPOS>ATOM
      1 C1         -9.8616    0.3265   65.8753 C.3     1  ZINC000809503567    0.0200
      2 O2        -10.9021    0.4032   64.8987 O.3     1  ZINC000809503567   -0.3100
      3 C3        -10.6377   -0.1193   63.6745 C.ar    1  ZINC000809503567    0.1900
      4 C4         -9.3624   -0.5687   63.3701 C.ar    1  ZINC000809503567   -0.2100
      5 C5         -9.0945   -1.1003   62.1234 C.ar    1  ZINC000809503567   -0.0200
      6 C6        -10.0946   -1.1881   61.1696 C.ar    1  ZINC000809503567   -0.1500
      7 C7         -9.7888   -1.7697   59.8134 C.3     1  ZINC000809503567    0.1700
      8 N8        -10.6325   -2.9453   59.5847 N.am    1  ZINC000809503567   -0.7000
      9 C9        -10.8517   -3.3834   58.3291 C.2     1  ZINC000809503567    0.5100
     10 O10       -10.3515   -2.8033   57.3880 O.2     1  ZINC000809503567   -0.4900
     11 C11       -11.7110   -4.5837   58.0959 C.2     1  ZINC000809503567    0.5100
     12 O12       -11.3674   -5.6676   58.5199 O.2     1  ZINC000809503567   -0.5000
     13 N13       -12.8676   -4.4624   57.4146 N.am    1  ZINC000809503567   -0.4600
     14 C14       -13.7090   -5.6393   57.1844 C.3     1  ZINC000809503567    0.0800
     15 O15       -13.2693   -3.1974   56.9213 O.3     1  ZINC000809503567   -0.1100
     16 C16       -14.6679   -2.9376   57.0579 C.3     1  ZINC000809503567    0.0800
     17 C17       -15.0629   -3.0624   58.5068 C.ar    1  ZINC000809503567   -0.0900
     18 C18       -16.1891   -3.7836   58.8565 C.ar    1  ZINC000809503567   -0.1000
     19 C19       -16.5514   -3.8981   60.1857 C.ar    1  ZINC000809503567   -0.1300
     20 C20       -15.7873   -3.2917   61.1651 C.ar    1  ZINC000809503567   -0.1100
     21 C21       -14.6605   -2.5711   60.8154 C.ar    1  ZINC000809503567   -0.1300
     22 C22       -14.2958   -2.4603   59.4866 C.ar    1  ZINC000809503567   -0.0800
     23 C23       -11.3689   -0.7463   61.4554 C.ar    1  ZINC000809503567   -0.0100
     24 C24       -11.6547   -0.2120   62.7139 C.ar    1  ZINC000809503567   -0.0600
     25 C25       -12.9761    0.2488   63.0174 C.1     1  ZINC000809503567    0.2600
     26 N26       -14.0244    0.6144   63.2581 N.1     1  ZINC000809503567   -0.4100
     27 H27        -8.9830    0.8600   65.5127 H       1  ZINC000809503567    0.0600
     28 H28       -10.2030    0.7791   66.8062 H       1  ZINC000809503567    0.1100
     29 H29        -9.6053   -0.7182   66.0518 H       1  ZINC000809503567    0.0600
     30 H30        -8.5769   -0.5030   64.1083 H       1  ZINC000809503567    0.1400
     31 H31        -8.0992   -1.4492   61.8912 H       1  ZINC000809503567    0.1400
     32 H32        -9.9891   -1.0235   59.0445 H       1  ZINC000809503567    0.0900
     33 H33        -8.7395   -2.0619   59.7716 H       1  ZINC000809503567    0.0900
     34 H34       -11.0334   -3.4084   60.3368 H       1  ZINC000809503567    0.4100
     35 H35       -14.4164   -5.7467   58.0067 H       1  ZINC000809503567    0.0800
     36 H36       -14.2552   -5.5182   56.2490 H       1  ZINC000809503567    0.0800
     37 H37       -13.0817   -6.5288   57.1263 H       1  ZINC000809503567    0.0900
     38 H38       -14.8859   -1.9287   56.7074 H       1  ZINC000809503567    0.0700
     39 H39       -15.2309   -3.6580   56.4645 H       1  ZINC000809503567    0.0600
     40 H40       -16.7860   -4.2574   58.0914 H       1  ZINC000809503567    0.1200
     41 H41       -17.4316   -4.4610   60.4589 H       1  ZINC000809503567    0.1200
     42 H42       -16.0707   -3.3804   62.2034 H       1  ZINC000809503567    0.1200
     43 H43       -14.0637   -2.0970   61.5806 H       1  ZINC000809503567    0.1200
     44 H44       -13.4155   -1.8974   59.2134 H       1  ZINC000809503567    0.1300
     45 H45       -12.1458   -0.8167   60.7086 H       1  ZINC000809503567    0.1400
@<TRIPOS>BOND
     1     1     2    1
     2     1    27    1
     3     1    28    1
     4     1    29    1
     5     2     3    1
     6     3    24   ar
     7     3     4   ar
     8     4     5   ar
     9     4    30    1
    10     5     6   ar
    11     5    31    1
    12     6     7    1
    13     6    23   ar
    14     7     8    1
    15     7    32    1
    16     7    33    1
    17     8     9   am
    18     8    34    1
    19     9    10    2
    20     9    11    1
    21    11    12    2
    22    11    13   am
    23    13    14    1
    24    13    15    1
    25    14    35    1
    26    14    36    1
    27    14    37    1
    28    15    16    1
    29    16    17    1
    30    16    38    1
    31    16    39    1
    32    17    22   ar
    33    17    18   ar
    34    18    19   ar
    35    18    40    1
    36    19    20   ar
    37    19    41    1
    38    20    21   ar
    39    20    42    1
    40    21    22   ar
    41    21    43    1
    42    22    44    1
    43    23    24   ar
    44    23    45    1
    45    24    25    1
    46    25    26    3
@<TRIPOS>SUBSTRUCTURE
     1 ZINC000809503567        1 TEMP              0 ****  ****    0 ROOT


##########                                Name:    ZINC000426805817
##########                DOCK_Rotatable_Bonds:                   6
##########                         Heavy_Atoms:                  26
##########                    Molecular_Weight:             412.286
##########                DOCK_Rotatable_Bonds:                   6
##########                       Formal_Charge:          -0.0100001
##########                     HBond_Acceptors:                   5
##########                        HBond_Donors:                   4
##########                         Heavy_Atoms:                  26
##########                          Grid_Score:          -32.758560
##########                     Grid_vdw_energy:          -28.901253
##########                      Grid_es_energy:           -3.857307
##########           Internal_energy_repulsive:            3.400530

@<TRIPOS>MOLECULE
ZINC000426805817
 44 47 1 0 0
SMALL
USER_CHARGES


@<TRIPOS>ATOM
      1 O1         -9.5486   -4.5238   58.7077 O.co2   1  ZINC000426805817   -0.6300
      2 C2        -10.4058   -3.6912   58.4657 C.2     1  ZINC000426805817    0.5000
      3 O3        -11.2865   -3.9396   57.6599 O.co2   1  ZINC000426805817   -0.6800
      4 C4        -10.3804   -2.3576   59.1669 C.3     1  ZINC000426805817   -0.0500
      5 H5        -11.3232   -1.8383   58.9944 H       1  ZINC000426805817    0.1300
      6 C6        -10.1853   -2.5747   60.6688 C.3     1  ZINC000426805817   -0.0500
      7 C7        -10.7974   -1.4248   61.4264 C.2     1  ZINC000426805817   -0.1900
      8 C8        -10.1490   -0.3576   61.9190 C.2     1  ZINC000426805817    0.0500
      9 N9        -11.0335    0.4776   62.5452 N.pl3   1  ZINC000426805817   -0.5900
     10 C10       -12.3056   -0.0451   62.4689 C.ar    1  ZINC000426805817    0.1100
     11 C11       -13.5455    0.3864   62.9278 C.ar    1  ZINC000426805817   -0.1200
     12 C12       -14.6690   -0.3747   62.6909 C.ar    1  ZINC000426805817   -0.0700
     13 C13       -14.5786   -1.5737   61.9958 C.ar    1  ZINC000426805817   -0.1100
     14 Br14      -16.1365   -2.5993   61.6840 Br      1  ZINC000426805817   -0.0400
     15 C15       -13.3610   -2.0195   61.5321 C.ar    1  ZINC000426805817   -0.0400
     16 C16       -12.2141   -1.2564   61.7593 C.ar    1  ZINC000426805817   -0.1000
     17 N17        -9.2726   -1.5488   58.6410 N.4     1  ZINC000426805817   -0.4800
     18 H18        -8.5610   -1.4517   59.3498 H       1  ZINC000426805817    0.4000
     19 H19        -8.8798   -2.0031   57.8302 H       1  ZINC000426805817    0.4200
     20 C20        -9.7725   -0.2200   58.2637 C.3     1  ZINC000426805817    0.0400
     21 C21        -9.8227   -0.1102   56.7615 C.ar    1  ZINC000426805817   -0.1600
     22 C22        -8.8700    0.6441   56.0849 C.ar    1  ZINC000426805817    0.1100
     23 N23        -7.7857    1.3884   56.4925 N.pl3   1  ZINC000426805817   -0.5900
     24 C24        -7.1660    1.9417   55.4052 C.2     1  ZINC000426805817    0.0600
     25 C25        -7.8088    1.5859   54.2818 C.2     1  ZINC000426805817   -0.2000
     26 C26        -8.9320    0.7351   54.6821 C.ar    1  ZINC000426805817   -0.1100
     27 C27        -9.9433    0.0716   53.9852 C.ar    1  ZINC000426805817   -0.0400
     28 C28       -10.8691   -0.6640   54.6702 C.ar    1  ZINC000426805817   -0.1500
     29 C29       -10.8092   -0.7612   56.0534 C.ar    1  ZINC000426805817   -0.0700
     30 H30       -10.6687   -3.5049   60.9673 H       1  ZINC000426805817    0.1200
     31 H31        -9.1199   -2.6309   60.8923 H       1  ZINC000426805817    0.0900
     32 H32        -9.0865   -0.1842   61.8338 H       1  ZINC000426805817    0.1700
     33 H33       -10.7994    1.3134   62.9783 H       1  ZINC000426805817    0.4200
     34 H34       -13.6273    1.3170   63.4697 H       1  ZINC000426805817    0.1300
     35 H35       -15.6296   -0.0357   63.0495 H       1  ZINC000426805817    0.1400
     36 H36       -13.2942   -2.9523   60.9919 H       1  ZINC000426805817    0.1400
     37 H37       -10.7732   -0.0789   58.6719 H       1  ZINC000426805817    0.1500
     38 H38        -9.1063    0.5454   58.6618 H       1  ZINC000426805817    0.1300
     39 H39        -7.5035    1.5038   57.4134 H       1  ZINC000426805817    0.4300
     40 H40        -6.2896    2.5715   55.4451 H       1  ZINC000426805817    0.1800
     41 H41        -7.5475    1.8728   53.2739 H       1  ZINC000426805817    0.1500
     42 H42        -9.9941    0.1397   52.9085 H       1  ZINC000426805817    0.1300
     43 H43       -11.6514   -1.1772   54.1306 H       1  ZINC000426805817    0.1300
     44 H44       -11.5482   -1.3464   56.5807 H       1  ZINC000426805817    0.1300
@<TRIPOS>BOND
     1     1     2   ar
     2     2     3   ar
     3     2     4    1
     4     4     5    1
     5     4     6    1
     6     4    17    1
     7     6     7    1
     8     6    30    1
     9     6    31    1
    10     7    16    1
    11     7     8    2
    12     8     9    1
    13     8    32    1
    14     9    10    1
    15     9    33    1
    16    10    16   ar
    17    10    11   ar
    18    11    12   ar
    19    11    34    1
    20    12    13   ar
    21    12    35    1
    22    13    14    1
    23    13    15   ar
    24    15    16   ar
    25    15    36    1
    26    17    18    1
    27    17    19    1
    28    17    20    1
    29    20    21    1
    30    20    37    1
    31    20    38    1
    32    21    29   ar
    33    21    22   ar
    34    22    26   ar
    35    22    23    1
    36    23    24    1
    37    23    39    1
    38    24    25    2
    39    24    40    1
    40    25    26    1
    41    25    41    1
    42    26    27   ar
    43    27    28   ar
    44    27    42    1
    45    28    29   ar
    46    28    43    1
    47    29    44    1
@<TRIPOS>SUBSTRUCTURE
     1 ZINC000426805817        1 TEMP              0 ****  ****    0 ROOT


##########                                Name:    ZINC000008416770
##########                DOCK_Rotatable_Bonds:                  13
##########                         Heavy_Atoms:                  30
##########                    Molecular_Weight:             412.442
##########                DOCK_Rotatable_Bonds:                  13
##########                       Formal_Charge:          -0.0199998
##########                     HBond_Acceptors:                   8
##########                        HBond_Donors:                   2
##########                         Heavy_Atoms:                  30
##########                          Grid_Score:          -32.754673
##########                     Grid_vdw_energy:          -24.602886
##########                      Grid_es_energy:           -8.151788
##########           Internal_energy_repulsive:          174.331848

@<TRIPOS>MOLECULE
ZINC000008416770
 54 55 1 0 0
SMALL
USER_CHARGES


@<TRIPOS>ATOM
      1 C1          2.7713    5.4548   61.8007 C.3     1  ZINC000008416770   -0.1500
      2 C2          2.3649    5.5400   63.2732 C.3     1  ZINC000008416770    0.0600
      3 O3          1.0893    4.8726   63.4626 O.3     1  ZINC000008416770   -0.3500
      4 C4          0.5864    4.8579   64.7127 C.2     1  ZINC000008416770    0.5100
      5 O5          1.1966    5.3885   65.6194 O.2     1  ZINC000008416770   -0.5100
      6 C6         -0.7048    4.1975   64.9801 C.ar    1  ZINC000008416770   -0.1500
      7 C7         -1.4054    3.5809   63.9392 C.ar    1  ZINC000008416770   -0.0400
      8 C8         -2.6101    2.9651   64.1926 C.ar    1  ZINC000008416770   -0.1400
      9 C9         -3.1307    2.9559   65.4829 C.ar    1  ZINC000008416770    0.1800
     10 N10        -4.3512    2.3312   65.7358 N.am    1  ZINC000008416770   -0.6700
     11 C11        -4.8570    2.3213   66.9850 C.2     1  ZINC000008416770    0.5200
     12 O12        -4.2505    2.8558   67.8891 O.2     1  ZINC000008416770   -0.5100
     13 C13        -6.1762    1.6461   67.2584 C.3     1  ZINC000008416770   -0.1300
     14 C14        -6.3675    0.4855   66.2797 C.3     1  ZINC000008416770   -0.1000
     15 C15        -7.6873   -0.1889   66.5522 C.2     1  ZINC000008416770    0.4700
     16 O16        -7.7316   -1.3848   66.7190 O.2     1  ZINC000008416770   -0.5100
     17 O17        -8.8137    0.5388   66.6093 O.3     1  ZINC000008416770   -0.3300
     18 C18        -9.1982    1.2542   65.4056 C.3     1  ZINC000008416770    0.0500
     19 C19        -9.6725    0.2708   64.3668 C.2     1  ZINC000008416770    0.5100
     20 O20       -10.2146   -0.7588   64.7090 O.2     1  ZINC000008416770   -0.4900
     21 N21        -9.4942    0.5355   63.0574 N.am    1  ZINC000008416770   -0.6700
     22 C22        -9.9345   -0.3775   62.0928 C.ar    1  ZINC000008416770    0.1400
     23 C23       -11.2593   -0.3651   61.6764 C.ar    1  ZINC000008416770   -0.1400
     24 C24       -11.6908   -1.2676   60.7240 C.ar    1  ZINC000008416770   -0.1000
     25 C25       -10.8053   -2.1831   60.1857 C.ar    1  ZINC000008416770   -0.1000
     26 C26       -11.2797   -3.1667   59.1470 C.3     1  ZINC000008416770   -0.1200
     27 C27        -9.4855   -2.1977   60.5978 C.ar    1  ZINC000008416770   -0.1000
     28 C28        -9.0464   -1.2942   61.5455 C.ar    1  ZINC000008416770   -0.1200
     29 C29        -2.4360    3.5682   66.5215 C.ar    1  ZINC000008416770   -0.1600
     30 C30        -1.2284    4.1817   66.2764 C.ar    1  ZINC000008416770   -0.0300
     31 H31         2.8618    4.4086   61.5085 H       1  ZINC000008416770    0.0700
     32 H32         2.0128    5.9395   61.1859 H       1  ZINC000008416770    0.0700
     33 H33         3.7288    5.9559   61.6585 H       1  ZINC000008416770    0.0800
     34 H34         3.1233    5.0554   63.8880 H       1  ZINC000008416770    0.0700
     35 H35         2.2745    6.5862   63.5654 H       1  ZINC000008416770    0.0700
     36 H36        -1.0020    3.5880   62.9374 H       1  ZINC000008416770    0.1400
     37 H37        -3.1519    2.4889   63.3888 H       1  ZINC000008416770    0.1400
     38 H38        -4.8363    1.9037   65.0127 H       1  ZINC000008416770    0.4200
     39 H39        -6.1848    1.2652   68.2796 H       1  ZINC000008416770    0.1100
     40 H40        -6.9856    2.3651   67.1317 H       1  ZINC000008416770    0.1100
     41 H41        -6.3580    0.8662   65.2584 H       1  ZINC000008416770    0.1200
     42 H42        -5.5586   -0.2339   66.4068 H       1  ZINC000008416770    0.1200
     43 H43       -10.0021    1.9522   65.6391 H       1  ZINC000008416770    0.1100
     44 H44        -8.3399    1.8043   65.0201 H       1  ZINC000008416770    0.1100
     45 H45        -9.0608    1.3589   62.7836 H       1  ZINC000008416770    0.4100
     46 H46       -11.9516    0.3492   62.0970 H       1  ZINC000008416770    0.1300
     47 H47       -12.7209   -1.2585   60.3998 H       1  ZINC000008416770    0.1300
     48 H48       -11.1544   -2.7353   58.1540 H       1  ZINC000008416770    0.0700
     49 H49       -10.6951   -4.0837   59.2213 H       1  ZINC000008416770    0.0700
     50 H50       -12.3328   -3.3927   59.3148 H       1  ZINC000008416770    0.0700
     51 H51        -8.7964   -2.9141   60.1754 H       1  ZINC000008416770    0.1300
     52 H52        -8.0154   -1.3060   61.8671 H       1  ZINC000008416770    0.1300
     53 H53        -2.8430    3.5588   67.5218 H       1  ZINC000008416770    0.1400
     54 H54        -0.6898    4.6568   67.0829 H       1  ZINC000008416770    0.1400
@<TRIPOS>BOND
     1     1     2    1
     2     1    31    1
     3     1    32    1
     4     1    33    1
     5     2     3    1
     6     2    34    1
     7     2    35    1
     8     3     4    1
     9     4     5    2
    10     4     6    1
    11     6    30   ar
    12     6     7   ar
    13     7     8   ar
    14     7    36    1
    15     8     9   ar
    16     8    37    1
    17     9    10    1
    18     9    29   ar
    19    10    11   am
    20    10    38    1
    21    11    12    2
    22    11    13    1
    23    13    14    1
    24    13    39    1
    25    13    40    1
    26    14    15    1
    27    14    41    1
    28    14    42    1
    29    15    16    2
    30    15    17    1
    31    17    18    1
    32    18    19    1
    33    18    43    1
    34    18    44    1
    35    19    20    2
    36    19    21   am
    37    21    22    1
    38    21    45    1
    39    22    28   ar
    40    22    23   ar
    41    23    24   ar
    42    23    46    1
    43    24    25   ar
    44    24    47    1
    45    25    26    1
    46    25    27   ar
    47    26    48    1
    48    26    49    1
    49    26    50    1
    50    27    28   ar
    51    27    51    1
    52    28    52    1
    53    29    30   ar
    54    29    53    1
    55    30    54    1
@<TRIPOS>SUBSTRUCTURE
     1 ZINC000008416770        1 TEMP              0 ****  ****    0 ROOT


##########                                Name:    ZINC000555499135
##########                DOCK_Rotatable_Bonds:                   8
##########                         Heavy_Atoms:                  26
##########                    Molecular_Weight:             377.554
##########                DOCK_Rotatable_Bonds:                   8
##########                       Formal_Charge:           0.0399999
##########                     HBond_Acceptors:                   7
##########                        HBond_Donors:                   0
##########                         Heavy_Atoms:                  26
##########                          Grid_Score:          -32.736340
##########                     Grid_vdw_energy:          -32.335182
##########                      Grid_es_energy:           -0.401158
##########           Internal_energy_repulsive:           13.681507

@<TRIPOS>MOLECULE
ZINC000555499135
 57 59 1 0 0
SMALL
USER_CHARGES


@<TRIPOS>ATOM
      1 C1        -17.6818   -6.4798   50.5887 C.3     1  ZINC000555499135   -0.1500
      2 C2        -17.9555   -6.9150   52.0297 C.3     1  ZINC000555499135   -0.0500
      3 C3        -17.1378   -6.0711   52.9732 C.2     1  ZINC000555499135   -0.2100
      4 C4        -17.5672   -4.9941   53.6378 C.2     1  ZINC000555499135    0.0300
      5 N5        -16.6577   -4.4263   54.4041 N.2     1  ZINC000555499135   -0.4500
      6 C6        -15.4853   -4.9645   54.4231 C.2     1  ZINC000555499135    0.0400
      7 C7        -14.3185   -4.4621   55.2339 C.3     1  ZINC000555499135    0.1500
      8 N8        -14.5714   -4.7076   56.6599 N.3     1  ZINC000555499135   -0.4500
      9 C9        -14.8281   -6.1320   56.9115 C.3     1  ZINC000555499135    0.0100
     10 C10       -13.5202   -4.2477   57.4372 C.2     1  ZINC000555499135    0.3500
     11 N11       -12.3786   -4.8600   57.6462 N.2     1  ZINC000555499135   -0.3100
     12 N12       -11.6356   -4.1476   58.4158 N.2     1  ZINC000555499135   -0.2900
     13 C13       -12.2539   -3.0476   58.7407 C.2     1  ZINC000555499135    0.2100
     14 C14       -11.7201   -1.9510   59.6260 C.3     1  ZINC000555499135   -0.0300
     15 C15       -10.4976   -2.4625   60.3906 C.3     1  ZINC000555499135   -0.0900
     16 C16        -9.2607   -2.3705   59.4949 C.3     1  ZINC000555499135   -0.1500
     17 C17       -10.2853   -1.6090   61.6426 C.3     1  ZINC000555499135   -0.1500
     18 N18       -13.4745   -3.0699   58.1247 N.pl3   1  ZINC000555499135   -0.4600
     19 C19       -14.5196   -2.0458   58.1952 C.3     1  ZINC000555499135    0.1100
     20 C20       -15.2440   -2.1480   59.5389 C.3     1  ZINC000555499135    0.0700
     21 H21       -14.5184   -2.3399   60.3293 H       1  ZINC000555499135    0.0700
     22 C22       -16.2572   -3.2944   59.4867 C.3     1  ZINC000555499135   -0.1500
     23 C23       -17.0201   -3.3520   60.8138 C.3     1  ZINC000555499135   -0.1200
     24 C24       -17.6882   -1.9967   61.0653 C.3     1  ZINC000555499135   -0.1600
     25 C25       -16.6196   -0.9003   61.0564 C.3     1  ZINC000555499135    0.0600
     26 O26       -15.9272   -0.9217   59.8066 O.3     1  ZINC000555499135   -0.3700
     27 S27       -15.4490   -6.3347   53.4010 S.3     1  ZINC000555499135    0.1200
     28 H28       -17.9547   -5.4314   50.4678 H       1  ZINC000555499135    0.0600
     29 H29       -16.6226   -6.6077   50.3654 H       1  ZINC000555499135    0.0600
     30 H30       -18.2733   -7.0901   49.9062 H       1  ZINC000555499135    0.0700
     31 H31       -19.0147   -6.7871   52.2529 H       1  ZINC000555499135    0.0900
     32 H32       -17.6827   -7.9634   52.1506 H       1  ZINC000555499135    0.0800
     33 H33       -18.5766   -4.6197   53.5536 H       1  ZINC000555499135    0.1800
     34 H34       -13.4124   -4.9861   54.9301 H       1  ZINC000555499135    0.0800
     35 H35       -14.1932   -3.3924   55.0660 H       1  ZINC000555499135    0.1200
     36 H36       -13.9209   -6.7044   56.7178 H       1  ZINC000555499135    0.0500
     37 H37       -15.1294   -6.2690   57.9500 H       1  ZINC000555499135    0.0800
     38 H38       -15.6245   -6.4794   56.2533 H       1  ZINC000555499135    0.0900
     39 H39       -11.4340   -1.0962   59.0131 H       1  ZINC000555499135    0.1000
     40 H40       -12.4913   -1.6483   60.3343 H       1  ZINC000555499135    0.1000
     41 H41       -10.6592   -3.5004   60.6815 H       1  ZINC000555499135    0.0800
     42 H42        -9.4277   -2.9463   58.5845 H       1  ZINC000555499135    0.0500
     43 H43        -9.0758   -1.3278   59.2366 H       1  ZINC000555499135    0.0600
     44 H44        -8.3972   -2.7720   60.0254 H       1  ZINC000555499135    0.0600
     45 H45       -11.1666   -1.6745   62.2807 H       1  ZINC000555499135    0.0600
     46 H46        -9.4143   -1.9734   62.1873 H       1  ZINC000555499135    0.0600
     47 H47       -10.1238   -0.5710   61.3515 H       1  ZINC000555499135    0.0600
     48 H48       -14.0678   -1.0584   58.1001 H       1  ZINC000555499135    0.1100
     49 H49       -15.2330   -2.1984   57.3853 H       1  ZINC000555499135    0.1200
     50 H50       -16.9589   -3.1235   58.6703 H       1  ZINC000555499135    0.0800
     51 H51       -15.7332   -4.2367   59.3267 H       1  ZINC000555499135    0.0800
     52 H52       -17.7818   -4.1301   60.7632 H       1  ZINC000555499135    0.0700
     53 H53       -16.3255   -3.5721   61.6245 H       1  ZINC000555499135    0.0600
     54 H54       -18.4187   -1.7996   60.2807 H       1  ZINC000555499135    0.0700
     55 H55       -18.1875   -2.0108   62.0341 H       1  ZINC000555499135    0.0800
     56 H56       -17.0946    0.0712   61.1922 H       1  ZINC000555499135    0.1000
     57 H57       -15.9121   -1.0758   61.8668 H       1  ZINC000555499135    0.0500
@<TRIPOS>BOND
     1     1     2    1
     2     1    28    1
     3     1    29    1
     4     1    30    1
     5     2     3    1
     6     2    31    1
     7     2    32    1
     8     3    27    1
     9     3     4    2
    10     4     5    1
    11     4    33    1
    12     5     6    2
    13     6     7    1
    14     6    27    1
    15     7     8    1
    16     7    34    1
    17     7    35    1
    18     8     9    1
    19     8    10    1
    20     9    36    1
    21     9    37    1
    22     9    38    1
    23    10    18    1
    24    10    11    2
    25    11    12    1
    26    12    13    2
    27    13    14    1
    28    13    18    1
    29    14    15    1
    30    14    39    1
    31    14    40    1
    32    15    16    1
    33    15    17    1
    34    15    41    1
    35    16    42    1
    36    16    43    1
    37    16    44    1
    38    17    45    1
    39    17    46    1
    40    17    47    1
    41    18    19    1
    42    19    20    1
    43    19    48    1
    44    19    49    1
    45    20    21    1
    46    20    26    1
    47    20    22    1
    48    22    23    1
    49    22    50    1
    50    22    51    1
    51    23    24    1
    52    23    52    1
    53    23    53    1
    54    24    25    1
    55    24    54    1
    56    24    55    1
    57    25    26    1
    58    25    56    1
    59    25    57    1
@<TRIPOS>SUBSTRUCTURE
     1 ZINC000555499135        1 TEMP              0 ****  ****    0 ROOT


##########                                Name:    ZINC000433961694
##########                DOCK_Rotatable_Bonds:                   7
##########                         Heavy_Atoms:                  29
##########                    Molecular_Weight:             413.472
##########                DOCK_Rotatable_Bonds:                   7
##########                       Formal_Charge:          0.00999992
##########                     HBond_Acceptors:                   8
##########                        HBond_Donors:                   0
##########                         Heavy_Atoms:                  29
##########                          Grid_Score:          -32.698730
##########                     Grid_vdw_energy:          -30.952221
##########                      Grid_es_energy:           -1.746510
##########           Internal_energy_repulsive:           14.524502

@<TRIPOS>MOLECULE
ZINC000433961694
 49 52 1 0 0
SMALL
USER_CHARGES


@<TRIPOS>ATOM
      1 C1        -12.8891   -3.7148   56.1611 C.3     1  ZINC000433961694   -0.1000
      2 C2        -11.8720   -2.7435   56.7024 C.2     1  ZINC000433961694    0.1600
      3 C3        -11.8536   -1.4302   56.3632 C.2     1  ZINC000433961694   -0.3000
      4 C4        -12.7838   -0.7603   55.4479 C.2     1  ZINC000433961694    0.6200
      5 O5        -13.9808   -0.7947   55.6642 O.2     1  ZINC000433961694   -0.5100
      6 N6        -12.3127   -0.1068   54.3675 N.am    1  ZINC000433961694   -0.6100
      7 C7        -13.1312    0.6062   53.3700 C.3     1  ZINC000433961694    0.1100
      8 C8        -12.1747    1.6536   52.7474 C.3     1  ZINC000433961694   -0.1300
      9 C9        -10.8375    0.8677   52.7047 C.3     1  ZINC000433961694    0.0800
     10 H10       -10.7921    0.2317   51.8205 H       1  ZINC000433961694    0.1000
     11 O11        -9.7239    1.7625   52.7392 O.3     1  ZINC000433961694   -0.2900
     12 C12        -8.4919    1.2201   52.5644 C.ar    1  ZINC000433961694    0.1700
     13 C13        -8.3444   -0.1231   52.2275 C.ar    1  ZINC000433961694   -0.2600
     14 C14        -7.0750   -0.6367   52.0586 C.ar    1  ZINC000433961694    0.1400
     15 N15        -6.0103    0.1275   52.2122 N.ar    1  ZINC000433961694   -0.5100
     16 C16        -6.1093    1.4043   52.5310 C.ar    1  ZINC000433961694    0.1400
     17 C17        -7.3436    1.9941   52.7117 C.ar    1  ZINC000433961694   -0.2000
     18 C18       -10.8967    0.0187   53.9919 C.3     1  ZINC000433961694    0.0600
     19 S19       -10.5124   -0.6731   57.2195 S.3     1  ZINC000433961694    0.2100
     20 C20       -10.1134   -2.1718   57.9386 C.2     1  ZINC000433961694    0.0400
     21 C21        -8.9728   -2.3881   58.8995 C.3     1  ZINC000433961694    0.1400
     22 O22        -9.4728   -2.9541   60.1126 O.3     1  ZINC000433961694   -0.3000
     23 C23       -10.1364   -2.1192   60.9557 C.ar    1  ZINC000433961694    0.1200
     24 C24       -11.5222   -2.1435   61.0083 C.ar    1  ZINC000433961694   -0.1800
     25 C25       -12.1953   -1.2945   61.8654 C.ar    1  ZINC000433961694   -0.1100
     26 C26       -11.4872   -0.4193   62.6713 C.ar    1  ZINC000433961694    0.0600
     27 F27       -12.1467    0.4107   63.5088 F       1  ZINC000433961694   -0.1400
     28 C28       -10.1038   -0.3944   62.6203 C.ar    1  ZINC000433961694   -0.1100
     29 C29        -9.4280   -1.2463   61.7682 C.ar    1  ZINC000433961694   -0.1200
     30 N30       -10.9329   -3.0931   57.5453 N.2     1  ZINC000433961694   -0.4500
     31 H31       -13.7593   -3.7329   56.8172 H       1  ZINC000433961694    0.0800
     32 H32       -13.1936   -3.4028   55.1621 H       1  ZINC000433961694    0.1000
     33 H33       -12.4500   -4.7112   56.1124 H       1  ZINC000433961694    0.0800
     34 H34       -13.4856   -0.0855   52.6057 H       1  ZINC000433961694    0.0800
     35 H35       -13.9729    1.1015   53.8540 H       1  ZINC000433961694    0.1000
     36 H36       -12.4978    1.9300   51.7438 H       1  ZINC000433961694    0.1000
     37 H37       -12.0904    2.5336   53.3852 H       1  ZINC000433961694    0.1000
     38 H38        -9.2116   -0.7541   52.1006 H       1  ZINC000433961694    0.1400
     39 H39        -6.9512   -1.6774   51.7976 H       1  ZINC000433961694    0.1600
     40 H40        -5.2134    1.9959   52.6476 H       1  ZINC000433961694    0.1700
     41 H41        -7.4177    3.0395   52.9723 H       1  ZINC000433961694    0.1400
     42 H42       -10.3394    0.5127   54.7878 H       1  ZINC000433961694    0.0900
     43 H43       -10.4795   -0.9704   53.8030 H       1  ZINC000433961694    0.0800
     44 H44        -8.2462   -3.0676   58.4539 H       1  ZINC000433961694    0.0900
     45 H45        -8.4929   -1.4334   59.1147 H       1  ZINC000433961694    0.1000
     46 H46       -12.0748   -2.8255   60.3791 H       1  ZINC000433961694    0.1400
     47 H47       -13.2744   -1.3132   61.9065 H       1  ZINC000433961694    0.1400
     48 H48        -9.5527    0.2885   63.2497 H       1  ZINC000433961694    0.1500
     49 H49        -8.3489   -1.2267   61.7285 H       1  ZINC000433961694    0.1400
@<TRIPOS>BOND
     1     1     2    1
     2     1    31    1
     3     1    32    1
     4     1    33    1
     5     2    30    1
     6     2     3    2
     7     3     4    1
     8     3    19    1
     9     4     5    2
    10     4     6   am
    11     6    18    1
    12     6     7    1
    13     7     8    1
    14     7    34    1
    15     7    35    1
    16     8     9    1
    17     8    36    1
    18     8    37    1
    19     9    10    1
    20     9    11    1
    21     9    18    1
    22    11    12    1
    23    12    17   ar
    24    12    13   ar
    25    13    14   ar
    26    13    38    1
    27    14    15   ar
    28    14    39    1
    29    15    16   ar
    30    16    17   ar
    31    16    40    1
    32    17    41    1
    33    18    42    1
    34    18    43    1
    35    19    20    1
    36    20    21    1
    37    20    30    2
    38    21    22    1
    39    21    44    1
    40    21    45    1
    41    22    23    1
    42    23    29   ar
    43    23    24   ar
    44    24    25   ar
    45    24    46    1
    46    25    26   ar
    47    25    47    1
    48    26    27    1
    49    26    28   ar
    50    28    29   ar
    51    28    48    1
    52    29    49    1
@<TRIPOS>SUBSTRUCTURE
     1 ZINC000433961694        1 TEMP              0 ****  ****    0 ROOT


##########                                Name:    ZINC000466160459
##########                DOCK_Rotatable_Bonds:                   9
##########                         Heavy_Atoms:                  30
##########                    Molecular_Weight:             420.512
##########                DOCK_Rotatable_Bonds:                   9
##########                       Formal_Charge:          -0.0300007
##########                     HBond_Acceptors:                  10
##########                        HBond_Donors:                   2
##########                         Heavy_Atoms:                  30
##########                          Grid_Score:          -32.637280
##########                     Grid_vdw_energy:          -31.263622
##########                      Grid_es_energy:           -1.373658
##########           Internal_energy_repulsive:          107.897484

@<TRIPOS>MOLECULE
ZINC000466160459
 62 64 1 0 0
SMALL
USER_CHARGES


@<TRIPOS>ATOM
      1 C1        -15.3099   -7.1681   54.3480 C.3     1  ZINC000466160459    0.0300
      2 O2        -14.8642   -6.8346   55.6642 O.3     1  ZINC000466160459   -0.3900
      3 C3        -15.0511   -5.4609   56.0105 C.3     1  ZINC000466160459    0.0500
      4 C4        -14.9120   -5.2933   57.5250 C.3     1  ZINC000466160459    0.1200
      5 N5        -15.2135   -3.9077   57.8927 N.am    1  ZINC000466160459   -0.7300
      6 C6        -16.0802   -3.6489   58.8918 C.2     1  ZINC000466160459    0.5200
      7 O7        -16.6095   -4.5632   59.4874 O.2     1  ZINC000466160459   -0.5200
      8 C8        -16.3917   -2.2234   59.2688 C.3     1  ZINC000466160459   -0.1300
      9 H9        -16.5775   -2.1631   60.3412 H       1  ZINC000466160459    0.1100
     10 C10       -17.6337   -1.7535   58.5079 C.3     1  ZINC000466160459   -0.1000
     11 C11       -17.3859   -1.8696   57.0023 C.3     1  ZINC000466160459   -0.1500
     12 C12       -16.2098   -0.9690   56.6114 C.3     1  ZINC000466160459    0.1600
     13 H13       -16.4776    0.0744   56.7780 H       1  ZINC000466160459    0.0700
     14 C14       -15.8695   -1.1818   55.1350 C.3     1  ZINC000466160459   -0.1400
     15 N15       -15.0499   -1.3186   57.4426 N.am    1  ZINC000466160459   -0.6200
     16 C16       -13.8663   -1.6256   56.8755 C.2     1  ZINC000466160459    0.7100
     17 O17       -13.7511   -1.6147   55.6652 O.2     1  ZINC000466160459   -0.5500
     18 N18       -12.8105   -1.9445   57.6501 N.am    1  ZINC000466160459   -0.7300
     19 C19       -11.5240   -2.2781   57.0338 C.3     1  ZINC000466160459    0.1600
     20 H20       -11.6944   -2.6779   56.0342 H       1  ZINC000466160459    0.1300
     21 C21       -10.8089   -3.3288   57.8867 C.3     1  ZINC000466160459   -0.1400
     22 C22       -10.3342   -2.6601   59.1824 C.3     1  ZINC000466160459   -0.1400
     23 C23        -9.2368   -1.6518   58.8395 C.3     1  ZINC000466160459    0.1100
     24 N24        -9.6745   -0.7663   57.7677 N.am    1  ZINC000466160459   -0.5200
     25 C25        -8.9943    0.4475   57.5995 C.2     1  ZINC000466160459    0.2800
     26 N26        -7.9513    0.6463   56.8284 N.2     1  ZINC000466160459   -0.2600
     27 N27        -7.5739    1.9904   56.9421 N.pl3   1  ZINC000466160459   -0.3800
     28 C28        -6.4554    2.6320   56.2467 C.3     1  ZINC000466160459    0.1000
     29 C29        -8.4212    2.5912   57.8039 C.2     1  ZINC000466160459    0.0700
     30 C30        -9.3134    1.6649   58.2220 C.2     1  ZINC000466160459   -0.2900
     31 C31       -10.6804   -1.0393   56.9386 C.2     1  ZINC000466160459    0.4900
     32 O32       -10.9292   -0.2446   56.0567 O.2     1  ZINC000466160459   -0.4700
     33 C33       -15.2041   -1.3270   58.9044 C.3     1  ZINC000466160459    0.1200
     34 H34       -15.1334   -8.2275   54.1622 H       1  ZINC000466160459    0.0900
     35 H35       -16.3756   -6.9566   54.2609 H       1  ZINC000466160459    0.0400
     36 H36       -14.7607   -6.5745   53.6172 H       1  ZINC000466160459    0.0400
     37 H37       -14.2989   -4.8536   55.5072 H       1  ZINC000466160459    0.0600
     38 H38       -16.0452   -5.1398   55.6992 H       1  ZINC000466160459    0.0700
     39 H39       -15.6082   -5.9629   58.0301 H       1  ZINC000466160459    0.0800
     40 H40       -13.8926   -5.5353   57.8253 H       1  ZINC000466160459    0.0800
     41 H41       -14.7893   -3.1764   57.4170 H       1  ZINC000466160459    0.4000
     42 H42       -18.4857   -2.3745   58.7847 H       1  ZINC000466160459    0.0700
     43 H43       -17.8439   -0.7147   58.7624 H       1  ZINC000466160459    0.0700
     44 H44       -17.1512   -2.9039   56.7509 H       1  ZINC000466160459    0.1000
     45 H45       -18.2790   -1.5569   56.4614 H       1  ZINC000466160459    0.0700
     46 H46       -16.7632   -1.0277   54.5303 H       1  ZINC000466160459    0.0400
     47 H47       -15.0999   -0.4712   54.8335 H       1  ZINC000466160459    0.0800
     48 H48       -15.5029   -2.1980   54.9894 H       1  ZINC000466160459    0.0600
     49 H49       -12.9024   -1.9530   58.6158 H       1  ZINC000466160459    0.3900
     50 H50       -11.4974   -4.1400   58.1233 H       1  ZINC000466160459    0.0900
     51 H51        -9.9511   -3.7223   57.3413 H       1  ZINC000466160459    0.0900
     52 H52       -11.1700   -2.1443   59.6552 H       1  ZINC000466160459    0.0700
     53 H53        -9.9375   -3.4160   59.8600 H       1  ZINC000466160459    0.1000
     54 H54        -9.0031   -1.0590   59.7238 H       1  ZINC000466160459    0.0900
     55 H55        -8.3422   -2.1871   58.5218 H       1  ZINC000466160459    0.0800
     56 H56        -6.8014    3.0318   55.2935 H       1  ZINC000466160459    0.0700
     57 H57        -6.0633    3.4432   56.8602 H       1  ZINC000466160459    0.0900
     58 H58        -5.6691    1.8983   56.0689 H       1  ZINC000466160459    0.0900
     59 H59        -8.3941    3.6286   58.1032 H       1  ZINC000466160459    0.1800
     60 H60       -10.1231    1.8304   58.9174 H       1  ZINC000466160459    0.1500
     61 H61       -15.3897   -0.3127   59.2580 H       1  ZINC000466160459    0.0900
     62 H62       -14.2965   -1.7165   59.3654 H       1  ZINC000466160459    0.0700
@<TRIPOS>BOND
     1     1     2    1
     2     1    34    1
     3     1    35    1
     4     1    36    1
     5     2     3    1
     6     3     4    1
     7     3    37    1
     8     3    38    1
     9     4     5    1
    10     4    39    1
    11     4    40    1
    12     5     6   am
    13     5    41    1
    14     6     7    2
    15     6     8    1
    16     8     9    1
    17     8    33    1
    18     8    10    1
    19    10    11    1
    20    10    42    1
    21    10    43    1
    22    11    12    1
    23    11    44    1
    24    11    45    1
    25    12    13    1
    26    12    14    1
    27    12    15    1
    28    14    46    1
    29    14    47    1
    30    14    48    1
    31    15    16   am
    32    15    33    1
    33    16    17    2
    34    16    18   am
    35    18    19    1
    36    18    49    1
    37    19    20    1
    38    19    31    1
    39    19    21    1
    40    21    22    1
    41    21    50    1
    42    21    51    1
    43    22    23    1
    44    22    52    1
    45    22    53    1
    46    23    24    1
    47    23    54    1
    48    23    55    1
    49    24    25    1
    50    24    31   am
    51    25    30    1
    52    25    26    2
    53    26    27    1
    54    27    28    1
    55    27    29    1
    56    28    56    1
    57    28    57    1
    58    28    58    1
    59    29    30    2
    60    29    59    1
    61    30    60    1
    62    31    32    2
    63    33    61    1
    64    33    62    1
@<TRIPOS>SUBSTRUCTURE
     1 ZINC000466160459        1 TEMP              0 ****  ****    0 ROOT


##########                                Name:    ZINC000001174632
##########                DOCK_Rotatable_Bonds:                   6
##########                         Heavy_Atoms:                  29
##########                    Molecular_Weight:             385.419
##########                DOCK_Rotatable_Bonds:                   6
##########                       Formal_Charge:           0.0400005
##########                     HBond_Acceptors:                   5
##########                        HBond_Donors:                   1
##########                         Heavy_Atoms:                  29
##########                          Grid_Score:          -32.637054
##########                     Grid_vdw_energy:          -30.346161
##########                      Grid_es_energy:           -2.290895
##########           Internal_energy_repulsive:            9.353623

@<TRIPOS>MOLECULE
ZINC000001174632
 48 51 1 0 0
SMALL
USER_CHARGES


@<TRIPOS>ATOM
      1 C1        -17.9638   -2.1434   60.9686 C.3     1  ZINC000001174632    0.0400
      2 O2        -17.0110   -2.8833   61.7765 O.3     1  ZINC000001174632   -0.3500
      3 C3        -15.9908   -2.1847   62.3127 C.2     1  ZINC000001174632    0.5200
      4 O4        -15.5010   -2.5375   63.3674 O.2     1  ZINC000001174632   -0.5200
      5 C5        -15.4695   -0.9932   61.6200 C.ar    1  ZINC000001174632   -0.2000
      6 C6        -15.8410    0.2851   62.0437 C.ar    1  ZINC000001174632   -0.0200
      7 C7        -15.3493    1.3954   61.3917 C.ar    1  ZINC000001174632   -0.1800
      8 C8        -14.4871    1.2518   60.3165 C.ar    1  ZINC000001174632   -0.0300
      9 C9        -14.1107   -0.0041   59.8853 C.ar    1  ZINC000001174632   -0.1900
     10 C10       -14.5910   -1.1354   60.5331 C.ar    1  ZINC000001174632    0.2600
     11 N11       -14.2135   -2.4002   60.1015 N.pl3   1  ZINC000001174632   -0.6500
     12 C12       -12.9089   -2.6466   59.7588 C.2     1  ZINC000001174632    0.2300
     13 C13       -12.4939   -3.3743   58.6600 C.2     1  ZINC000001174632   -0.1800
     14 C14       -13.3777   -4.0150   57.6609 C.ar    1  ZINC000001174632   -0.0600
     15 C15       -14.2234   -3.2339   56.8719 C.ar    1  ZINC000001174632   -0.0600
     16 C16       -15.0457   -3.8349   55.9419 C.ar    1  ZINC000001174632   -0.1500
     17 C17       -15.0331   -5.2146   55.7904 C.ar    1  ZINC000001174632    0.1400
     18 O18       -15.8452   -5.8031   54.8725 O.3     1  ZINC000001174632   -0.3200
     19 C19       -15.2459   -6.7567   53.9929 C.3     1  ZINC000001174632    0.0300
     20 C20       -14.1934   -5.9951   56.5731 C.ar    1  ZINC000001174632   -0.2100
     21 C21       -13.3636   -5.4014   57.5011 C.ar    1  ZINC000001174632   -0.0500
     22 C22       -11.0258   -3.4026   58.6528 C.2     1  ZINC000001174632    0.4500
     23 O23       -10.3172   -3.9521   57.8322 O.2     1  ZINC000001174632   -0.4100
     24 C24       -10.5697   -2.6302   59.8413 C.ar    1  ZINC000001174632   -0.1600
     25 C25        -9.3162   -2.3253   60.3375 C.ar    1  ZINC000001174632   -0.0500
     26 C26        -9.1955   -1.5665   61.4976 C.ar    1  ZINC000001174632   -0.1100
     27 C27       -10.3213   -1.1184   62.1538 C.ar    1  ZINC000001174632   -0.0900
     28 C28       -11.5868   -1.4190   61.6639 C.ar    1  ZINC000001174632   -0.0800
     29 C29       -11.7204   -2.1692   60.5048 C.ar    1  ZINC000001174632   -0.0600
     30 H30       -17.4469   -1.6859   60.1250 H       1  ZINC000001174632    0.0700
     31 H31       -18.7317   -2.8229   60.5989 H       1  ZINC000001174632    0.1100
     32 H32       -18.4282   -1.3659   61.5752 H       1  ZINC000001174632    0.0700
     33 H33       -16.5129    0.4031   62.8808 H       1  ZINC000001174632    0.1400
     34 H34       -15.6380    2.3829   61.7205 H       1  ZINC000001174632    0.1300
     35 H35       -14.1075    2.1282   59.8125 H       1  ZINC000001174632    0.1300
     36 H36       -13.4389   -0.1075   59.0460 H       1  ZINC000001174632    0.1300
     37 H37       -14.8726   -3.1093   60.0426 H       1  ZINC000001174632    0.4300
     38 H38       -14.2342   -2.1604   56.9897 H       1  ZINC000001174632    0.1300
     39 H39       -15.7004   -3.2312   55.3311 H       1  ZINC000001174632    0.1300
     40 H40       -14.4555   -6.2742   53.4181 H       1  ZINC000001174632    0.0600
     41 H41       -14.8232   -7.5743   54.5770 H       1  ZINC000001174632    0.0600
     42 H42       -16.0020   -7.1490   53.3128 H       1  ZINC000001174632    0.1000
     43 H43       -14.1869   -7.0682   56.4524 H       1  ZINC000001174632    0.1300
     44 H44       -12.7103   -6.0092   58.1094 H       1  ZINC000001174632    0.1300
     45 H45        -8.4320   -2.6756   59.8259 H       1  ZINC000001174632    0.1400
     46 H46        -8.2161   -1.3283   61.8854 H       1  ZINC000001174632    0.1400
     47 H47       -10.2198   -0.5306   63.0541 H       1  ZINC000001174632    0.1400
     48 H48       -12.4654   -1.0649   62.1826 H       1  ZINC000001174632    0.1300
@<TRIPOS>BOND
     1     1     2    1
     2     1    30    1
     3     1    31    1
     4     1    32    1
     5     2     3    1
     6     3     4    2
     7     3     5    1
     8     5    10   ar
     9     5     6   ar
    10     6     7   ar
    11     6    33    1
    12     7     8   ar
    13     7    34    1
    14     8     9   ar
    15     8    35    1
    16     9    10   ar
    17     9    36    1
    18    10    11    1
    19    11    12    1
    20    11    37    1
    21    12    29    1
    22    12    13    2
    23    13    14    1
    24    13    22    1
    25    14    21   ar
    26    14    15   ar
    27    15    16   ar
    28    15    38    1
    29    16    17   ar
    30    16    39    1
    31    17    18    1
    32    17    20   ar
    33    18    19    1
    34    19    40    1
    35    19    41    1
    36    19    42    1
    37    20    21   ar
    38    20    43    1
    39    21    44    1
    40    22    23    2
    41    22    24    1
    42    24    29   ar
    43    24    25   ar
    44    25    26   ar
    45    25    45    1
    46    26    27   ar
    47    26    46    1
    48    27    28   ar
    49    27    47    1
    50    28    29   ar
    51    28    48    1
@<TRIPOS>SUBSTRUCTURE
     1 ZINC000001174632        1 TEMP              0 ****  ****    0 ROOT


##########                                Name:    ZINC000279452407
##########                DOCK_Rotatable_Bonds:                   6
##########                         Heavy_Atoms:                  24
##########                    Molecular_Weight:              375.47
##########                DOCK_Rotatable_Bonds:                   6
##########                       Formal_Charge:          0.00999929
##########                     HBond_Acceptors:                  10
##########                        HBond_Donors:                   3
##########                         Heavy_Atoms:                  24
##########                          Grid_Score:          -32.625885
##########                     Grid_vdw_energy:          -29.450687
##########                      Grid_es_energy:           -3.175199
##########           Internal_energy_repulsive:           29.623356

@<TRIPOS>MOLECULE
ZINC000279452407
 45 47 1 0 0
SMALL
USER_CHARGES


@<TRIPOS>ATOM
      1 C1          1.8686    0.8680   47.1693 C.3     1  ZINC000279452407   -0.1600
      2 C2          0.6759    0.2480   46.4386 C.3     1  ZINC000279452407    0.0600
      3 H3          0.3534   -0.6560   46.9552 H       1  ZINC000279452407    0.0700
      4 O4          1.0414   -0.0664   45.0828 O.3     1  ZINC000279452407   -0.3700
      5 C5         -0.1323    0.1475   44.2687 C.3     1  ZINC000279452407    0.0500
      6 C6         -0.7590    1.4347   44.8656 C.3     1  ZINC000279452407   -0.1400
      7 C7         -0.4812    1.2558   46.3768 C.3     1  ZINC000279452407    0.0700
      8 C8         -0.0577    2.5884   46.9896 C.3     1  ZINC000279452407    0.1100
      9 N9          0.0245    2.4242   48.4508 N.am    1  ZINC000279452407   -0.6300
     10 C10         1.1118    2.8306   49.1357 C.2     1  ZINC000279452407    0.7200
     11 O11         2.0450    3.3417   48.5474 O.2     1  ZINC000279452407   -0.5800
     12 N12         1.1647    2.6705   50.4729 N.am    1  ZINC000279452407   -0.7500
     13 C13         2.3465    3.1122   51.2173 C.3     1  ZINC000279452407    0.2000
     14 C14         3.0917    1.9095   51.7363 C.2     1  ZINC000279452407   -0.1700
     15 C15         2.6570    0.6500   51.6746 C.2     1  ZINC000279452407   -0.1400
     16 C16         3.5155   -0.2906   52.2172 C.2     1  ZINC000279452407    0.0100
     17 C17         4.6473    0.2051   52.7196 C.2     1  ZINC000279452407   -0.7900
     18 S18         5.9266   -0.7449   53.4718 S.o2    1  ZINC000279452407    2.7300
     19 N19         5.5977   -2.3388   53.1661 N.am    1  ZINC000279452407   -1.2500
     20 O20         7.1214   -0.4391   52.7658 O.2     1  ZINC000279452407   -0.9600
     21 O21         5.7858   -0.5680   54.8746 O.2     1  ZINC000279452407   -0.9500
     22 S22         4.6711    1.9512   52.5092 S.3     1  ZINC000279452407    0.2500
     23 C23        -1.1179    1.8029   49.1397 C.3     1  ZINC000279452407    0.0700
     24 C24        -1.4587    0.4891   48.4274 C.3     1  ZINC000279452407    0.0400
     25 O25        -1.6354    0.7427   47.0306 O.3     1  ZINC000279452407   -0.3600
     26 H26         1.6132    1.0198   48.2180 H       1  ZINC000279452407    0.0700
     27 H27         2.7264    0.1995   47.0973 H       1  ZINC000279452407    0.0600
     28 H28         2.1157    1.8267   46.7131 H       1  ZINC000279452407    0.0800
     29 H29         0.1470    0.3043   43.2268 H       1  ZINC000279452407    0.1000
     30 H30        -0.8209   -0.6924   44.3601 H       1  ZINC000279452407    0.0700
     31 H31        -0.2623    2.3248   44.4794 H       1  ZINC000279452407    0.1000
     32 H32        -1.8306    1.4727   44.6700 H       1  ZINC000279452407    0.1000
     33 H33         0.9173    2.8782   46.5981 H       1  ZINC000279452407    0.1200
     34 H34        -0.7953    3.3536   46.7479 H       1  ZINC000279452407    0.0800
     35 H35         0.4202    2.2626   50.9423 H       1  ZINC000279452407    0.4000
     36 H36         2.9976    3.6864   50.5582 H       1  ZINC000279452407    0.1000
     37 H37         2.0359    3.7365   52.0551 H       1  ZINC000279452407    0.0900
     38 H38         1.7071    0.3842   51.2350 H       1  ZINC000279452407    0.1600
     39 H39         3.2860   -1.3459   52.2331 H       1  ZINC000279452407    0.1600
     40 H40         6.1910   -3.0294   53.5009 H       1  ZINC000279452407    0.4200
     41 H41         4.8118   -2.5819   52.6520 H       1  ZINC000279452407    0.4200
     42 H42        -0.8532    1.5992   50.1773 H       1  ZINC000279452407    0.0900
     43 H43        -1.9766    2.4732   49.1026 H       1  ZINC000279452407    0.0900
     44 H44        -0.6454   -0.2229   48.5681 H       1  ZINC000279452407    0.0600
     45 H45        -2.3792    0.0782   48.8422 H       1  ZINC000279452407    0.1100
@<TRIPOS>BOND
     1     1     2    1
     2     1    26    1
     3     1    27    1
     4     1    28    1
     5     2     3    1
     6     2     7    1
     7     2     4    1
     8     4     5    1
     9     5     6    1
    10     5    29    1
    11     5    30    1
    12     6     7    1
    13     6    31    1
    14     6    32    1
    15     7    25    1
    16     7     8    1
    17     8     9    1
    18     8    33    1
    19     8    34    1
    20     9    10   am
    21     9    23    1
    22    10    11    2
    23    10    12   am
    24    12    13    1
    25    12    35    1
    26    13    14    1
    27    13    36    1
    28    13    37    1
    29    14    22    1
    30    14    15    2
    31    15    16    1
    32    15    38    1
    33    16    17    2
    34    16    39    1
    35    17    18    1
    36    17    22    1
    37    18    19   am
    38    18    20    2
    39    18    21    2
    40    19    40    1
    41    19    41    1
    42    23    24    1
    43    23    42    1
    44    23    43    1
    45    24    25    1
    46    24    44    1
    47    24    45    1
@<TRIPOS>SUBSTRUCTURE
     1 ZINC000279452407        1 TEMP              0 ****  ****    0 ROOT


##########                                Name:    ZINC000550217006
##########                DOCK_Rotatable_Bonds:                   7
##########                         Heavy_Atoms:                  27
##########                    Molecular_Weight:             367.404
##########                DOCK_Rotatable_Bonds:                   7
##########                       Formal_Charge:          0.00999951
##########                     HBond_Acceptors:                   7
##########                        HBond_Donors:                   3
##########                         Heavy_Atoms:                  27
##########                          Grid_Score:          -32.620029
##########                     Grid_vdw_energy:          -29.262283
##########                      Grid_es_energy:           -3.357746
##########           Internal_energy_repulsive:           12.118797

@<TRIPOS>MOLECULE
ZINC000550217006
 48 50 1 0 0
SMALL
USER_CHARGES


@<TRIPOS>ATOM
      1 C1        -10.4697   -0.2908   52.2571 C.3     1  ZINC000550217006   -0.1500
      2 C2         -9.3409    0.4573   52.9693 C.3     1  ZINC000550217006    0.0500
      3 O3         -9.6511    0.5765   54.3590 O.3     1  ZINC000550217006   -0.3100
      4 C4         -8.7725    1.2696   55.1301 C.ar    1  ZINC000550217006    0.1400
      5 C5         -7.7097    1.9391   54.5416 C.ar    1  ZINC000550217006   -0.2100
      6 C6         -6.8180    2.6435   55.3277 C.ar    1  ZINC000550217006   -0.0800
      7 C7         -6.9840    2.6808   56.6996 C.ar    1  ZINC000550217006   -0.1600
      8 C8         -8.0425    2.0137   57.2888 C.ar    1  ZINC000550217006   -0.0700
      9 C9         -8.9401    1.3133   56.5068 C.ar    1  ZINC000550217006   -0.1200
     10 C10       -10.0936    0.5870   57.1494 C.3     1  ZINC000550217006   -0.0800
     11 C11        -9.5586   -0.4083   58.1810 C.3     1  ZINC000550217006    0.1300
     12 N12        -9.7267    0.1455   59.5268 N.am    1  ZINC000550217006   -0.7200
     13 C13        -9.7656   -0.6769   60.5938 C.2     1  ZINC000550217006    0.5600
     14 O14        -9.6627   -1.8779   60.4395 O.2     1  ZINC000550217006   -0.5300
     15 C15        -9.9338   -0.1171   61.9542 C.ar    1  ZINC000550217006   -0.0800
     16 C16       -10.4644    1.1640   62.1235 C.ar    1  ZINC000550217006   -0.1000
     17 C17       -10.6176    1.6800   63.3870 C.ar    1  ZINC000550217006   -0.0500
     18 C18       -10.2469    0.9331   64.5175 C.ar    1  ZINC000550217006   -0.1300
     19 C19        -9.7201   -0.3474   64.3528 C.ar    1  ZINC000550217006    0.1800
     20 C20        -9.5697   -0.8668   63.0657 C.ar    1  ZINC000550217006   -0.0900
     21 N21        -9.3393   -1.1571   65.4093 N.am    1  ZINC000550217006   -0.6600
     22 C22        -8.6931   -0.7555   66.4996 C.2     1  ZINC000550217006    0.5100
     23 O23        -8.3774   -1.5782   67.3329 O.2     1  ZINC000550217006   -0.5100
     24 C24        -8.3419    0.6888   66.7300 C.3     1  ZINC000550217006    0.0900
     25 N25        -9.5778    1.4627   66.8470 N.am    1  ZINC000550217006   -0.7100
     26 C26       -10.4378    1.5581   65.8344 C.2     1  ZINC000550217006    0.5600
     27 O27       -11.4504    2.2069   66.0113 O.2     1  ZINC000550217006   -0.5200
     28 H28       -11.4023    0.2609   52.3752 H       1  ZINC000550217006    0.0700
     29 H29       -10.2330   -0.3818   51.1971 H       1  ZINC000550217006    0.0800
     30 H30       -10.5778   -1.2845   52.6918 H       1  ZINC000550217006    0.0700
     31 H31        -8.4083   -0.0945   52.8513 H       1  ZINC000550217006    0.0600
     32 H32        -9.2327    1.4510   52.5346 H       1  ZINC000550217006    0.0600
     33 H33        -7.5792    1.9097   53.4699 H       1  ZINC000550217006    0.1300
     34 H34        -5.9904    3.1650   54.8700 H       1  ZINC000550217006    0.1300
     35 H35        -6.2858    3.2316   57.3124 H       1  ZINC000550217006    0.1300
     36 H36        -8.1698    2.0440   58.3608 H       1  ZINC000550217006    0.1300
     37 H37       -10.7462    1.3068   57.6435 H       1  ZINC000550217006    0.0800
     38 H38       -10.6565    0.0510   56.3853 H       1  ZINC000550217006    0.0800
     39 H39       -10.1100   -1.3451   58.1020 H       1  ZINC000550217006    0.0700
     40 H40        -8.5007   -0.5925   57.9935 H       1  ZINC000550217006    0.0700
     41 H41        -9.8101    1.1041   59.6499 H       1  ZINC000550217006    0.4000
     42 H42       -10.7534    1.7479   61.2621 H       1  ZINC000550217006    0.1400
     43 H43       -11.0273    2.6712   63.5128 H       1  ZINC000550217006    0.1500
     44 H44        -9.1592   -1.8569   62.9326 H       1  ZINC000550217006    0.1500
     45 H45        -9.5637   -2.0988   65.3490 H       1  ZINC000550217006    0.4200
     46 H46        -7.7643    0.7819   67.6497 H       1  ZINC000550217006    0.1300
     47 H47        -7.7562    1.0608   65.8894 H       1  ZINC000550217006    0.1000
     48 H48        -9.7758    1.9165   67.6810 H       1  ZINC000550217006    0.4200
@<TRIPOS>BOND
     1     1     2    1
     2     1    28    1
     3     1    29    1
     4     1    30    1
     5     2     3    1
     6     2    31    1
     7     2    32    1
     8     3     4    1
     9     4     9   ar
    10     4     5   ar
    11     5     6   ar
    12     5    33    1
    13     6     7   ar
    14     6    34    1
    15     7     8   ar
    16     7    35    1
    17     8     9   ar
    18     8    36    1
    19     9    10    1
    20    10    11    1
    21    10    37    1
    22    10    38    1
    23    11    12    1
    24    11    39    1
    25    11    40    1
    26    12    13   am
    27    12    41    1
    28    13    14    2
    29    13    15    1
    30    15    20   ar
    31    15    16   ar
    32    16    17   ar
    33    16    42    1
    34    17    18   ar
    35    17    43    1
    36    18    26    1
    37    18    19   ar
    38    19    20   ar
    39    19    21    1
    40    20    44    1
    41    21    22   am
    42    21    45    1
    43    22    23    2
    44    22    24    1
    45    24    25    1
    46    24    46    1
    47    24    47    1
    48    25    26   am
    49    25    48    1
    50    26    27    2
@<TRIPOS>SUBSTRUCTURE
     1 ZINC000550217006        1 TEMP              0 ****  ****    0 ROOT


##########                                Name:    ZINC000459459628
##########                DOCK_Rotatable_Bonds:                   8
##########                         Heavy_Atoms:                  27
##########                    Molecular_Weight:             377.366
##########                DOCK_Rotatable_Bonds:                   8
##########                       Formal_Charge:         -0.00999984
##########                     HBond_Acceptors:                   8
##########                        HBond_Donors:                   1
##########                         Heavy_Atoms:                  27
##########                          Grid_Score:          -32.613888
##########                     Grid_vdw_energy:          -28.009600
##########                      Grid_es_energy:           -4.604288
##########           Internal_energy_repulsive:           19.438833

@<TRIPOS>MOLECULE
ZINC000459459628
 45 46 1 0 0
SMALL
USER_CHARGES


@<TRIPOS>ATOM
      1 C1        -11.0508   -4.4675   58.7733 C.3     1  ZINC000459459628   -0.1600
      2 C2        -11.6284   -3.0526   58.6995 C.3     1  ZINC000459459628    0.1600
      3 H3        -12.5205   -2.9914   59.3229 H       1  ZINC000459459628    0.1100
      4 C4        -11.9955   -2.7265   57.2504 C.3     1  ZINC000459459628   -0.0900
      5 C5        -13.1275   -3.6169   56.8065 C.ar    1  ZINC000459459628   -0.0500
      6 C6        -14.0994   -4.0015   57.7109 C.ar    1  ZINC000459459628   -0.1200
      7 C7        -15.1384   -4.8185   57.3051 C.ar    1  ZINC000459459628   -0.0900
      8 C8        -15.2064   -5.2513   55.9947 C.ar    1  ZINC000459459628   -0.1600
      9 C9        -14.2335   -4.8662   55.0875 C.ar    1  ZINC000459459628    0.1000
     10 F10       -14.2989   -5.2889   53.8060 F       1  ZINC000459459628   -0.1400
     11 C11       -13.1964   -4.0440   55.4937 C.ar    1  ZINC000459459628   -0.1500
     12 N12       -10.6311   -2.0923   59.1785 N.am    1  ZINC000459459628   -0.6200
     13 C13        -9.5140   -1.7037   58.3141 C.3     1  ZINC000459459628    0.0700
     14 C14       -10.7414   -1.5664   60.4145 C.2     1  ZINC000459459628    0.7100
     15 O15       -11.6693   -1.8878   61.1315 O.2     1  ZINC000459459628   -0.5700
     16 N16        -9.8229   -0.6842   60.8558 N.am    1  ZINC000459459628   -0.6800
     17 C17        -9.9376   -0.1372   62.1415 C.ar    1  ZINC000459459628    0.1500
     18 C18        -9.3197   -0.7544   63.2135 C.ar    1  ZINC000459459628   -0.0400
     19 C19        -9.4361   -0.2055   64.4934 C.ar    1  ZINC000459459628   -0.0300
     20 C20        -8.7980   -0.8404   65.6071 C.1     1  ZINC000459459628    0.2600
     21 N21        -8.2917   -1.3439   66.4906 N.1     1  ZINC000459459628   -0.4100
     22 C22       -10.1761    0.9640   64.6840 C.ar    1  ZINC000459459628   -0.0500
     23 C23       -10.7902    1.5744   63.6111 C.ar    1  ZINC000459459628   -0.1700
     24 C24       -10.6706    1.0337   62.3390 C.ar    1  ZINC000459459628    0.1100
     25 O25       -11.2775    1.6392   61.2854 O.3     1  ZINC000459459628   -0.3200
     26 C26       -10.9761    3.0191   61.0683 C.3     1  ZINC000459459628    0.4100
     27 F27       -11.0152    3.2948   59.6973 F       1  ZINC000459459628   -0.1900
     28 F28       -11.9194    3.8122   61.7305 F       1  ZINC000459459628   -0.1900
     29 H29       -10.1587   -4.5286   58.1499 H       1  ZINC000459459628    0.0600
     30 H30       -10.7892   -4.6996   59.8056 H       1  ZINC000459459628    0.0600
     31 H31       -11.7928   -5.1819   58.4169 H       1  ZINC000459459628    0.0700
     32 H32       -12.3044   -1.6836   57.1797 H       1  ZINC000459459628    0.0800
     33 H33       -11.1295   -2.8932   56.6099 H       1  ZINC000459459628    0.0900
     34 H34       -14.0468   -3.6639   58.7354 H       1  ZINC000459459628    0.1300
     35 H35       -15.8970   -5.1186   58.0128 H       1  ZINC000459459628    0.1300
     36 H36       -16.0177   -5.8900   55.6780 H       1  ZINC000459459628    0.1300
     37 H37       -12.4374   -3.7427   54.7870 H       1  ZINC000459459628    0.1300
     38 H38        -9.7989   -0.8348   57.7208 H       1  ZINC000459459628    0.0600
     39 H39        -8.6482   -1.4563   58.9283 H       1  ZINC000459459628    0.0700
     40 H40        -9.2639   -2.5309   57.6499 H       1  ZINC000459459628    0.0800
     41 H41        -9.0827   -0.4278   60.2839 H       1  ZINC000459459628    0.4100
     42 H42        -8.7489   -1.6587   63.0621 H       1  ZINC000459459628    0.1600
     43 H43       -10.2674    1.3900   65.6722 H       1  ZINC000459459628    0.1400
     44 H44       -11.3623    2.4782   63.7606 H       1  ZINC000459459628    0.1500
     45 H45        -9.9810    3.2388   61.4550 H       1  ZINC000459459628    0.1900
@<TRIPOS>BOND
     1     1     2    1
     2     1    29    1
     3     1    30    1
     4     1    31    1
     5     2     3    1
     6     2     4    1
     7     2    12    1
     8     4     5    1
     9     4    32    1
    10     4    33    1
    11     5    11   ar
    12     5     6   ar
    13     6     7   ar
    14     6    34    1
    15     7     8   ar
    16     7    35    1
    17     8     9   ar
    18     8    36    1
    19     9    10    1
    20     9    11   ar
    21    11    37    1
    22    12    13    1
    23    12    14   am
    24    13    38    1
    25    13    39    1
    26    13    40    1
    27    14    15    2
    28    14    16   am
    29    16    17    1
    30    16    41    1
    31    17    24   ar
    32    17    18   ar
    33    18    19   ar
    34    18    42    1
    35    19    20    1
    36    19    22   ar
    37    20    21    3
    38    22    23   ar
    39    22    43    1
    40    23    24   ar
    41    23    44    1
    42    24    25    1
    43    25    26    1
    44    26    27    1
    45    26    28    1
    46    26    45    1
@<TRIPOS>SUBSTRUCTURE
     1 ZINC000459459628        1 TEMP              0 ****  ****    0 ROOT


##########                                Name:    ZINC000506566356
##########                DOCK_Rotatable_Bonds:                  10
##########                         Heavy_Atoms:                  28
##########                    Molecular_Weight:               415.9
##########                DOCK_Rotatable_Bonds:                  10
##########                       Formal_Charge:           0.0199998
##########                     HBond_Acceptors:                   8
##########                        HBond_Donors:                   2
##########                         Heavy_Atoms:                  28
##########                          Grid_Score:          -32.613773
##########                     Grid_vdw_energy:          -32.166439
##########                      Grid_es_energy:           -0.447333
##########           Internal_energy_repulsive:            4.676841

@<TRIPOS>MOLECULE
ZINC000506566356
 46 48 1 0 0
SMALL
USER_CHARGES


@<TRIPOS>ATOM
      1 O1        -14.8837   -5.3994   56.7796 O.2     1  ZINC000506566356   -0.5100
      2 C2        -14.2093   -4.6197   56.1391 C.2     1  ZINC000506566356    0.5100
      3 N3        -14.4973   -4.3861   54.8434 N.am    1  ZINC000506566356   -0.7000
      4 C4        -15.6208   -5.0778   54.2065 C.3     1  ZINC000506566356    0.1200
      5 C5        -15.1415   -6.4166   53.6419 C.3     1  ZINC000506566356   -0.0900
      6 C6        -16.3040   -7.1428   53.0157 C.ar    1  ZINC000506566356   -0.0700
      7 C7        -17.0763   -7.9981   53.7789 C.ar    1  ZINC000506566356   -0.1100
      8 C8        -18.1434   -8.6644   53.2053 C.ar    1  ZINC000506566356   -0.1000
      9 C9        -18.4382   -8.4759   51.8684 C.ar    1  ZINC000506566356   -0.1100
     10 C10       -17.6653   -7.6198   51.1039 C.ar    1  ZINC000506566356   -0.0300
     11 Cl11      -18.0353   -7.3821   49.4245 Cl      1  ZINC000506566356   -0.0700
     12 C12       -16.6014   -6.9491   51.6797 C.ar    1  ZINC000506566356   -0.1000
     13 C13       -13.0640   -3.9146   56.7883 C.2     1  ZINC000506566356    0.5100
     14 O14       -12.4425   -3.0726   56.1734 O.2     1  ZINC000506566356   -0.5000
     15 N15       -12.7206   -4.2133   58.0569 N.am    1  ZINC000506566356   -0.6300
     16 C16       -11.6479   -3.5529   58.6650 C.ar    1  ZINC000506566356    0.1100
     17 C17       -10.3544   -4.0267   58.4984 C.ar    1  ZINC000506566356   -0.0800
     18 C18        -9.2963   -3.3723   59.1004 C.ar    1  ZINC000506566356   -0.1400
     19 C19        -9.5228   -2.2457   59.8691 C.ar    1  ZINC000506566356   -0.0900
     20 C20       -10.8090   -1.7676   60.0404 C.ar    1  ZINC000506566356   -0.1900
     21 C21       -11.8747   -2.4135   59.4357 C.ar    1  ZINC000506566356    0.1200
     22 O22       -13.1398   -1.9447   59.6031 O.3     1  ZINC000506566356   -0.3100
     23 C23       -13.6793   -1.9914   60.9256 C.3     1  ZINC000506566356    0.1400
     24 C24       -15.1591   -2.2677   60.8550 C.2     1  ZINC000506566356    0.0500
     25 C25       -16.0802   -1.3067   60.9721 C.2     1  ZINC000506566356   -0.2300
     26 S26       -17.6681   -2.0577   60.8318 S.3     1  ZINC000506566356    0.1400
     27 C27       -16.9352   -3.5891   60.6296 C.2     1  ZINC000506566356    0.0200
     28 N28       -15.6505   -3.4760   60.6673 N.2     1  ZINC000506566356   -0.4700
     29 H29       -13.9607   -3.7600   54.3325 H       1  ZINC000506566356    0.4200
     30 H30       -16.4041   -5.2539   54.9437 H       1  ZINC000506566356    0.0800
     31 H31       -16.0148   -4.4625   53.3977 H       1  ZINC000506566356    0.0800
     32 H32       -14.3750   -6.2391   52.8873 H       1  ZINC000506566356    0.0900
     33 H33       -14.7255   -7.0224   54.4469 H       1  ZINC000506566356    0.0900
     34 H34       -16.8460   -8.1463   54.8236 H       1  ZINC000506566356    0.1300
     35 H35       -18.7465   -9.3326   53.8022 H       1  ZINC000506566356    0.1300
     36 H36       -19.2713   -8.9970   51.4203 H       1  ZINC000506566356    0.1300
     37 H37       -15.9979   -6.2807   51.0835 H       1  ZINC000506566356    0.1300
     38 H38       -13.2173   -4.8862   58.5483 H       1  ZINC000506566356    0.4300
     39 H39       -10.1746   -4.9067   57.8987 H       1  ZINC000506566356    0.1500
     40 H40        -8.2901   -3.7422   58.9703 H       1  ZINC000506566356    0.1300
     41 H41        -8.6928   -1.7377   60.3376 H       1  ZINC000506566356    0.1300
     42 H42       -10.9823   -0.8876   60.6423 H       1  ZINC000506566356    0.1400
     43 H43       -13.1882   -2.7838   61.4904 H       1  ZINC000506566356    0.0900
     44 H44       -13.5115   -1.0348   61.4204 H       1  ZINC000506566356    0.0900
     45 H45       -15.8860   -0.2555   61.1256 H       1  ZINC000506566356    0.1800
     46 H46       -17.4702   -4.5164   60.4865 H       1  ZINC000506566356    0.2100
@<TRIPOS>BOND
     1     1     2    2
     2     2     3   am
     3     2    13    1
     4     3     4    1
     5     3    29    1
     6     4     5    1
     7     4    30    1
     8     4    31    1
     9     5     6    1
    10     5    32    1
    11     5    33    1
    12     6    12   ar
    13     6     7   ar
    14     7     8   ar
    15     7    34    1
    16     8     9   ar
    17     8    35    1
    18     9    10   ar
    19     9    36    1
    20    10    11    1
    21    10    12   ar
    22    12    37    1
    23    13    14    2
    24    13    15   am
    25    15    16    1
    26    15    38    1
    27    16    21   ar
    28    16    17   ar
    29    17    18   ar
    30    17    39    1
    31    18    19   ar
    32    18    40    1
    33    19    20   ar
    34    19    41    1
    35    20    21   ar
    36    20    42    1
    37    21    22    1
    38    22    23    1
    39    23    24    1
    40    23    43    1
    41    23    44    1
    42    24    28    1
    43    24    25    2
    44    25    26    1
    45    25    45    1
    46    26    27    1
    47    27    28    2
    48    27    46    1
@<TRIPOS>SUBSTRUCTURE
     1 ZINC000506566356        1 TEMP              0 ****  ****    0 ROOT


##########                                Name:    ZINC000457806032
##########                DOCK_Rotatable_Bonds:                   8
##########                         Heavy_Atoms:                  24
##########                    Molecular_Weight:             387.911
##########                DOCK_Rotatable_Bonds:                   8
##########                       Formal_Charge:        -1.49012e-07
##########                     HBond_Acceptors:                   9
##########                        HBond_Donors:                   2
##########                         Heavy_Atoms:                  24
##########                          Grid_Score:          -32.558998
##########                     Grid_vdw_energy:          -31.315561
##########                      Grid_es_energy:           -1.243438
##########           Internal_energy_repulsive:            7.626450

@<TRIPOS>MOLECULE
ZINC000457806032
 42 43 1 0 0
SMALL
USER_CHARGES


@<TRIPOS>ATOM
      1 C1         -9.6477    1.8864   52.4910 C.3     1  ZINC000457806032    0.0800
      2 N2         -8.9513    0.5979   52.5239 N.am    1  ZINC000457806032   -1.0100
      3 C3         -9.6648   -0.6097   52.9467 C.3     1  ZINC000457806032    0.0900
      4 S4         -7.3576    0.5065   52.0832 S.o2    1  ZINC000457806032    2.7900
      5 O5         -6.9390   -0.8219   52.3650 O.2     1  ZINC000457806032   -0.9700
      6 O6         -7.2639    1.0936   50.7925 O.2     1  ZINC000457806032   -0.9700
      7 N7         -6.5084    1.4918   53.1080 N.am    1  ZINC000457806032   -1.1300
      8 C8         -6.8139    2.9234   53.1685 C.3     1  ZINC000457806032    0.1100
      9 C9         -5.5429    3.7020   53.5133 C.3     1  ZINC000457806032    0.1100
     10 N10        -4.5712    3.5566   52.4266 N.am    1  ZINC000457806032   -0.7300
     11 C11        -3.2749    3.8599   52.6365 C.2     1  ZINC000457806032    0.5800
     12 O12        -2.9115    4.2530   53.7288 O.2     1  ZINC000457806032   -0.5300
     13 C13        -2.2987    3.7154   51.5438 C.2     1  ZINC000457806032   -0.1500
     14 C14        -1.1750    4.4795   51.4469 C.2     1  ZINC000457806032   -0.2200
     15 S15        -0.2742    4.0464   50.0644 S.3     1  ZINC000457806032    0.2400
     16 C16        -1.4433    2.8133   49.6182 C.2     1  ZINC000457806032   -0.1700
     17 C17        -1.3420    1.9377   48.4306 C.ar    1  ZINC000457806032   -0.0100
     18 C18        -1.4412    0.5529   48.5710 C.ar    1  ZINC000457806032   -0.0900
     19 C19        -1.3458   -0.2589   47.4597 C.ar    1  ZINC000457806032   -0.1000
     20 C20        -1.1516    0.2979   46.2069 C.ar    1  ZINC000457806032   -0.0300
     21 Cl21       -1.0321   -0.7299   44.8131 Cl      1  ZINC000457806032   -0.0600
     22 C22        -1.0529    1.6713   46.0615 C.ar    1  ZINC000457806032   -0.1000
     23 C23        -1.1525    2.4934   47.1648 C.ar    1  ZINC000457806032   -0.1000
     24 C24        -2.4391    2.7794   50.5179 C.2     1  ZINC000457806032   -0.0700
     25 H25        -9.5411    2.3818   53.4560 H       1  ZINC000457806032    0.0600
     26 H26        -9.2152    2.5133   51.7111 H       1  ZINC000457806032    0.0800
     27 H27       -10.7047    1.7229   52.2812 H       1  ZINC000457806032    0.0800
     28 H28       -10.1210   -1.0850   52.0784 H       1  ZINC000457806032    0.0600
     29 H29        -8.9634   -1.3016   53.4131 H       1  ZINC000457806032    0.0700
     30 H30       -10.4409   -0.3410   53.6634 H       1  ZINC000457806032    0.0700
     31 H31        -5.8087    1.1212   53.6683 H       1  ZINC000457806032    0.4200
     32 H32        -7.1923    3.2552   52.2016 H       1  ZINC000457806032    0.0700
     33 H33        -7.5685    3.1018   53.9346 H       1  ZINC000457806032    0.0900
     34 H34        -5.7869    4.7563   53.6439 H       1  ZINC000457806032    0.0800
     35 H35        -5.1164    3.3107   54.4369 H       1  ZINC000457806032    0.0800
     36 H36        -4.8608    3.2419   51.5559 H       1  ZINC000457806032    0.4000
     37 H37        -0.8936    5.2516   52.1476 H       1  ZINC000457806032    0.1700
     38 H38        -1.5920    0.1174   49.5478 H       1  ZINC000457806032    0.1400
     39 H39        -1.4225   -1.3308   47.5671 H       1  ZINC000457806032    0.1400
     40 H40        -0.9014    2.1000   45.0818 H       1  ZINC000457806032    0.1400
     41 H41        -1.0757    3.5646   47.0501 H       1  ZINC000457806032    0.1300
     42 H42        -3.2741    2.0978   50.4499 H       1  ZINC000457806032    0.1600
@<TRIPOS>BOND
     1     1     2    1
     2     1    25    1
     3     1    26    1
     4     1    27    1
     5     2     3    1
     6     2     4   am
     7     3    28    1
     8     3    29    1
     9     3    30    1
    10     4     5    2
    11     4     6    2
    12     4     7   am
    13     7     8    1
    14     7    31    1
    15     8     9    1
    16     8    32    1
    17     8    33    1
    18     9    10    1
    19     9    34    1
    20     9    35    1
    21    10    11   am
    22    10    36    1
    23    11    12    2
    24    11    13    1
    25    13    24    1
    26    13    14    2
    27    14    15    1
    28    14    37    1
    29    15    16    1
    30    16    17    1
    31    16    24    2
    32    17    23   ar
    33    17    18   ar
    34    18    19   ar
    35    18    38    1
    36    19    20   ar
    37    19    39    1
    38    20    21    1
    39    20    22   ar
    40    22    23   ar
    41    22    40    1
    42    23    41    1
    43    24    42    1
@<TRIPOS>SUBSTRUCTURE
     1 ZINC000457806032        1 TEMP              0 ****  ****    0 ROOT


##########                                Name:    ZINC000163855860
##########                DOCK_Rotatable_Bonds:                   6
##########                         Heavy_Atoms:                  28
##########                    Molecular_Weight:             398.483
##########                DOCK_Rotatable_Bonds:                   6
##########                       Formal_Charge:          -0.0100004
##########                     HBond_Acceptors:                   7
##########                        HBond_Donors:                   1
##########                         Heavy_Atoms:                  28
##########                          Grid_Score:          -32.550369
##########                     Grid_vdw_energy:          -31.376961
##########                      Grid_es_energy:           -1.173407
##########           Internal_energy_repulsive:           29.017927

@<TRIPOS>MOLECULE
ZINC000163855860
 50 53 1 0 0
SMALL
USER_CHARGES


@<TRIPOS>ATOM
      1 C1        -13.0360   -1.2395   58.3915 C.3     1  ZINC000163855860   -0.1300
      2 C2        -14.0060   -1.9571   59.2944 C.ar    1  ZINC000163855860   -0.0600
      3 C3        -13.7898   -1.9874   60.6631 C.ar    1  ZINC000163855860    0.1400
      4 N4        -12.6695   -1.3504   61.2088 N.am    1  ZINC000163855860   -0.6700
      5 C5        -11.5829   -2.0718   61.5486 C.2     1  ZINC000163855860    0.5100
      6 O6        -11.5761   -3.2730   61.3814 O.2     1  ZINC000163855860   -0.5100
      7 C7        -10.3767   -1.3858   62.1362 C.3     1  ZINC000163855860   -0.1300
      8 C8         -9.4877   -0.8612   61.0068 C.3     1  ZINC000163855860   -0.1100
      9 H9         -8.4566   -0.7504   61.3424 H       1  ZINC000163855860    0.1100
     10 C10        -9.5677   -1.7841   59.7693 C.3     1  ZINC000163855860    0.0600
     11 O11        -9.4640   -0.8772   58.6320 O.3     1  ZINC000163855860   -0.3500
     12 C12        -9.9922    0.3138   58.9482 C.2     1  ZINC000163855860    0.4800
     13 O13       -10.3781    1.1361   58.1515 O.2     1  ZINC000163855860   -0.4500
     14 C14       -10.0326    0.4738   60.4525 C.3     1  ZINC000163855860   -0.1800
     15 C15       -14.6887   -2.6454   61.4943 C.ar    1  ZINC000163855860   -0.1100
     16 C16       -15.7971   -3.2751   60.9604 C.ar    1  ZINC000163855860   -0.1100
     17 C17       -16.0189   -3.2549   59.5982 C.ar    1  ZINC000163855860   -0.1000
     18 C18       -15.1219   -2.5972   58.7550 C.ar    1  ZINC000163855860   -0.1100
     19 C19       -15.3573   -2.5734   57.2954 C.2     1  ZINC000163855860    0.5700
     20 O20       -16.0990   -1.7401   56.8130 O.2     1  ZINC000163855860   -0.5300
     21 N21       -14.7495   -3.4757   56.5000 N.am    1  ZINC000163855860   -0.6100
     22 C22       -13.8483   -4.4924   57.0632 C.3     1  ZINC000163855860    0.1200
     23 C23       -14.4768   -5.8757   56.8325 C.3     1  ZINC000163855860   -0.0600
     24 C24       -14.9756   -5.9600   55.4055 C.2     1  ZINC000163855860   -0.1700
     25 C25       -15.2025   -4.9044   54.6011 C.2     1  ZINC000163855860   -0.1300
     26 C26       -15.6693   -5.2515   53.3372 C.2     1  ZINC000163855860   -0.1200
     27 C27       -15.8143   -6.5540   53.1152 C.2     1  ZINC000163855860   -0.2100
     28 S28       -15.3511   -7.4520   54.5527 S.3     1  ZINC000163855860    0.1100
     29 C29       -14.9650   -3.4659   55.0462 C.3     1  ZINC000163855860    0.1700
     30 H30       -12.3114   -1.9520   57.9973 H       1  ZINC000163855860    0.0700
     31 H31       -13.5798   -0.7801   57.5661 H       1  ZINC000163855860    0.0900
     32 H32       -12.5154   -0.4675   58.9580 H       1  ZINC000163855860    0.0700
     33 H33       -12.6750   -0.3896   61.3424 H       1  ZINC000163855860    0.4100
     34 H34        -9.8136   -2.0963   62.7415 H       1  ZINC000163855860    0.1100
     35 H35       -10.7003   -0.5531   62.7604 H       1  ZINC000163855860    0.1100
     36 H36       -10.5210   -2.3122   59.7494 H       1  ZINC000163855860    0.0800
     37 H37        -8.7391   -2.4922   59.7682 H       1  ZINC000163855860    0.1200
     38 H38        -9.3955    1.3019   60.7631 H       1  ZINC000163855860    0.1200
     39 H39       -11.0567    0.6349   60.7895 H       1  ZINC000163855860    0.1200
     40 H40       -14.5207   -2.6643   62.5609 H       1  ZINC000163855860    0.1500
     41 H41       -16.4923   -3.7845   61.6113 H       1  ZINC000163855860    0.1300
     42 H42       -16.8862   -3.7482   59.1849 H       1  ZINC000163855860    0.1300
     43 H43       -12.8804   -4.4400   56.5648 H       1  ZINC000163855860    0.0800
     44 H44       -13.7226   -4.3185   58.1319 H       1  ZINC000163855860    0.1000
     45 H45       -15.3111   -6.0182   57.5193 H       1  ZINC000163855860    0.0900
     46 H46       -13.7280   -6.6492   57.0031 H       1  ZINC000163855860    0.0900
     47 H47       -15.8991   -4.5108   52.5856 H       1  ZINC000163855860    0.1400
     48 H48       -16.1630   -6.9933   52.1921 H       1  ZINC000163855860    0.1700
     49 H49       -15.8364   -2.8565   54.8064 H       1  ZINC000163855860    0.1000
     50 H50       -14.0844   -3.0640   54.5451 H       1  ZINC000163855860    0.0900
@<TRIPOS>BOND
     1     1     2    1
     2     1    30    1
     3     1    31    1
     4     1    32    1
     5     2    18   ar
     6     2     3   ar
     7     3     4    1
     8     3    15   ar
     9     4     5   am
    10     4    33    1
    11     5     6    2
    12     5     7    1
    13     7     8    1
    14     7    34    1
    15     7    35    1
    16     8     9    1
    17     8    14    1
    18     8    10    1
    19    10    11    1
    20    10    36    1
    21    10    37    1
    22    11    12    1
    23    12    13    2
    24    12    14    1
    25    14    38    1
    26    14    39    1
    27    15    16   ar
    28    15    40    1
    29    16    17   ar
    30    16    41    1
    31    17    18   ar
    32    17    42    1
    33    18    19    1
    34    19    20    2
    35    19    21   am
    36    21    29    1
    37    21    22    1
    38    22    23    1
    39    22    43    1
    40    22    44    1
    41    23    24    1
    42    23    45    1
    43    23    46    1
    44    24    28    1
    45    24    25    2
    46    25    26    1
    47    25    29    1
    48    26    27    2
    49    26    47    1
    50    27    28    1
    51    27    48    1
    52    29    49    1
    53    29    50    1
@<TRIPOS>SUBSTRUCTURE
     1 ZINC000163855860        1 TEMP              0 ****  ****    0 ROOT


##########                                Name:     oleObject27.pdb
##########                DOCK_Rotatable_Bonds:                   9
##########                         Heavy_Atoms:                  35
##########                    Molecular_Weight:             513.466
##########                DOCK_Rotatable_Bonds:                   9
##########                       Formal_Charge:         0.000199873
##########                     HBond_Acceptors:                   8
##########                        HBond_Donors:                   1
##########                         Heavy_Atoms:                  35
##########                          Grid_Score:          -32.546581
##########                     Grid_vdw_energy:          -31.840561
##########                      Grid_es_energy:           -0.706021
##########           Internal_energy_repulsive:           43.616428

@<TRIPOS>MOLECULE
oleObject27.pdb
 65 68 1 0 0
SMALL
NO_CHARGES


@<TRIPOS>ATOM
      1 C         -13.0598    4.0594   55.1476 C.ar    1  UNL        -0.0620
      2 C         -12.8666    3.5266   53.8648 C.ar    1  UNL        -0.0590
      3 C         -11.9224    2.5049   53.6446 C.ar    1  UNL        -0.0456
      4 C         -11.1639    2.0041   54.7320 C.ar    1  UNL        -0.0187
      5 C         -11.3618    2.5585   56.0158 C.ar    1  UNL        -0.0565
      6 C         -12.3038    3.5768   56.2236 C.ar    1  UNL        -0.0619
      7 C         -10.1260    0.8887   54.5300 C.3     1  UNL         0.0921
      8 C          -8.7727    1.4212   54.0484 C.ar    1  UNL         0.0681
      9 C          -7.7104    1.7021   54.9438 C.ar    1  UNL        -0.0272
     10 C          -6.5051    2.2006   54.4145 C.ar    1  UNL        -0.0559
     11 C          -6.4004    2.4103   53.0318 C.ar    1  UNL        -0.0435
     12 C          -7.5086    2.1201   52.2219 C.ar    1  UNL         0.0272
     13 N          -8.6654    1.6426   52.7181 N.ar    1  UNL        -0.2587
     14 C          -7.8365    1.4953   56.4489 C.3     1  UNL        -0.0379
     15 N          -9.9480    0.0490   55.7235 N.am    1  UNL        -0.2865
     16 C         -10.6814   -1.0952   55.9808 C.2     1  UNL         0.3014
     17 O         -11.5477   -1.4892   55.2177 O.2     1  UNL        -0.2541
     18 N         -10.3657   -1.7579   57.1684 N.am    1  UNL        -0.2833
     19 C          -9.3108   -1.2669   58.0965 C.3     1  UNL         0.0284
     20 C          -8.8422   -2.2943   59.1555 C.3     1  UNL         0.0142
     21 N          -9.9674   -2.9867   59.8073 N.4     1  UNL        -0.2979
     22 C         -10.7630   -3.6939   58.7844 C.3     1  UNL         0.0142
     23 C         -11.3405   -2.7288   57.7237 C.3     1  UNL         0.0284
     24 C         -10.7321   -2.1125   60.7290 C.3     1  UNL         0.0223
     25 C          -9.8875   -1.5801   61.9040 C.3     1  UNL         0.0661
     26 O         -10.6288   -0.5158   62.5259 O.3     1  UNL        -0.3432
     27 C         -10.4272   -0.1030   63.8288 C.ar    1  UNL         0.0937
     28 C          -9.2435   -0.4058   64.5354 C.ar    1  UNL        -0.0288
     29 C          -9.0788    0.0337   65.8596 C.ar    1  UNL        -0.0408
     30 C         -10.0923    0.7765   66.4853 C.ar    1  UNL         0.0422
     31 C         -11.2722    1.0820   65.7893 C.ar    1  UNL        -0.0221
     32 C         -11.4398    0.6441   64.4650 C.ar    1  UNL         0.0723
     33 CL        -12.9261    1.0423   63.6235 Cl      1  UNL        -0.0814
     34 CL         -9.8839    1.3226   68.1355 Cl      1  UNL        -0.0843
     35 C         -11.7405    1.9725   52.2271 C.3     1  UNL        -0.0394
     36 H         -13.7896    4.8483   55.3054 H       1  UNL         0.0623
     37 H         -13.4539    3.9136   53.0369 H       1  UNL         0.0626
     38 H         -10.7789    2.2061   56.8616 H       1  UNL         0.0627
     39 H         -12.4451    3.9918   57.2173 H       1  UNL         0.0623
     40 H         -10.5232    0.2249   53.7565 H       1  UNL         0.0625
     41 H          -5.6638    2.4264   55.0638 H       1  UNL         0.0627
     42 H          -5.4828    2.7951   52.5968 H       1  UNL         0.0639
     43 H          -7.4702    2.2740   51.1442 H       1  UNL         0.0840
     44 H          -8.7187    2.0126   56.8466 H       1  UNL         0.0280
     45 H          -6.9616    1.8833   56.9855 H       1  UNL         0.0280
     46 H          -7.9270    0.4299   56.6942 H       1  UNL         0.0280
     47 H          -9.2779    0.3494   56.4173 H       1  UNL         0.1521
     48 H          -9.6996   -0.3787   58.6108 H       1  UNL         0.0484
     49 H          -8.4261   -0.9599   57.5252 H       1  UNL         0.0484
     50 H          -8.2182   -1.7897   59.9043 H       1  UNL         0.0447
     51 H          -8.2090   -3.0384   58.6547 H       1  UNL         0.0447
     52 H         -11.5770   -4.2682   59.2419 H       1  UNL         0.0447
     53 H         -10.1158   -4.4165   58.2704 H       1  UNL         0.0447
     54 H         -12.1666   -2.1609   58.1700 H       1  UNL         0.0484
     55 H         -11.7595   -3.3301   56.9066 H       1  UNL         0.0484
     56 H         -11.6020   -2.6458   61.1327 H       1  UNL         0.0455
     57 H         -11.1101   -1.2470   60.1695 H       1  UNL         0.0455
     58 H          -8.9277   -1.2060   61.5253 H       1  UNL         0.0586
     59 H          -9.7020   -2.3811   62.6299 H       1  UNL         0.0586
     60 H          -8.4469   -0.9780   64.0712 H       1  UNL         0.0652
     61 H          -8.1657   -0.2020   66.3991 H       1  UNL         0.0639
     62 H         -12.0560    1.6569   66.2744 H       1  UNL         0.0655
     63 H         -12.3331    2.5421   51.5004 H       1  UNL         0.0280
     64 H         -12.0561    0.9242   52.1561 H       1  UNL         0.0280
     65 H         -10.6919    2.0372   51.9116 H       1  UNL         0.0280
@<TRIPOS>BOND
     1     1     2   ar
     2     1     6   ar
     3     1    36    1
     4     2     3   ar
     5     2    37    1
     6     3     4   ar
     7     3    35    1
     8     4     5   ar
     9     4     7    1
    10     5     6   ar
    11     5    38    1
    12     6    39    1
    13     7     8    1
    14     7    15    1
    15     7    40    1
    16     8     9   ar
    17     8    13   ar
    18     9    10   ar
    19     9    14    1
    20    10    11   ar
    21    10    41    1
    22    11    12   ar
    23    11    42    1
    24    12    13   ar
    25    12    43    1
    26    14    44    1
    27    14    45    1
    28    14    46    1
    29    15    16   am
    30    15    47    1
    31    16    17    2
    32    16    18   am
    33    18    19    1
    34    18    23    1
    35    19    20    1
    36    19    48    1
    37    19    49    1
    38    20    21    1
    39    20    50    1
    40    20    51    1
    41    21    22    1
    42    21    24    1
    43    22    23    1
    44    22    52    1
    45    22    53    1
    46    23    54    1
    47    23    55    1
    48    24    25    1
    49    24    56    1
    50    24    57    1
    51    25    26    1
    52    25    58    1
    53    25    59    1
    54    26    27    1
    55    27    28   ar
    56    27    32   ar
    57    28    29   ar
    58    28    60    1
    59    29    30   ar
    60    29    61    1
    61    30    31   ar
    62    30    34    1
    63    31    32   ar
    64    31    62    1
    65    32    33    1
    66    35    63    1
    67    35    64    1
    68    35    65    1
@<TRIPOS>SUBSTRUCTURE
     1 UNL         1 TEMP              0 ****  ****    0 ROOT


##########                                Name:    ZINC000532153088
##########                DOCK_Rotatable_Bonds:                  11
##########                         Heavy_Atoms:                  29
##########                    Molecular_Weight:             402.484
##########                DOCK_Rotatable_Bonds:                  11
##########                       Formal_Charge:          -0.0200009
##########                     HBond_Acceptors:                   6
##########                        HBond_Donors:                   1
##########                         Heavy_Atoms:                  29
##########                          Grid_Score:          -32.380165
##########                     Grid_vdw_energy:          -31.881342
##########                      Grid_es_energy:           -0.498822
##########           Internal_energy_repulsive:           17.794304

@<TRIPOS>MOLECULE
ZINC000532153088
 57 59 1 0 0
SMALL
USER_CHARGES


@<TRIPOS>ATOM
      1 C1        -16.2538   -2.8301   61.4362 C.3     1  ZINC000532153088   -0.1800
      2 C2        -17.5394   -2.8591   60.6071 C.3     1  ZINC000532153088    0.0800
      3 C3        -18.4806   -1.7523   61.0865 C.3     1  ZINC000532153088   -0.1500
      4 O4        -17.2225   -2.6514   59.2293 O.3     1  ZINC000532153088   -0.3800
      5 C5        -16.2906   -3.5958   58.6984 C.3     1  ZINC000532153088    0.1000
      6 C6        -16.2600   -3.4811   57.1960 C.ar    1  ZINC000532153088   -0.0700
      7 C7        -17.3264   -2.9136   56.5245 C.ar    1  ZINC000532153088   -0.1000
      8 C8        -17.2983   -2.8084   55.1462 C.ar    1  ZINC000532153088   -0.1100
      9 C9        -16.2035   -3.2701   54.4400 C.ar    1  ZINC000532153088   -0.1200
     10 C10       -15.1363   -3.8369   55.1119 C.ar    1  ZINC000532153088   -0.1000
     11 C11       -15.1627   -3.9382   56.4901 C.ar    1  ZINC000532153088   -0.1100
     12 C12       -13.9995   -4.5559   57.2226 C.3     1  ZINC000532153088    0.1600
     13 N13       -12.8414   -3.6623   57.1418 N.am    1  ZINC000532153088   -0.7300
     14 C14       -11.6615   -4.0386   57.6735 C.2     1  ZINC000532153088    0.5100
     15 O15       -11.5588   -5.1164   58.2200 O.2     1  ZINC000532153088   -0.5000
     16 C16       -10.4697   -3.1201   57.5888 C.3     1  ZINC000532153088    0.0300
     17 N17       -10.4936   -2.1815   58.7186 N.3     1  ZINC000532153088   -0.4800
     18 C18       -10.0591   -2.8389   59.9584 C.3     1  ZINC000532153088    0.1000
     19 C19       -10.3496   -1.9397   61.1322 C.ar    1  ZINC000532153088   -0.1300
     20 C20        -9.3084   -1.3957   61.8598 C.ar    1  ZINC000532153088   -0.0600
     21 C21        -9.5733   -0.5703   62.9365 C.ar    1  ZINC000532153088   -0.1700
     22 C22       -10.8825   -0.2878   63.2872 C.ar    1  ZINC000532153088    0.1300
     23 F23       -11.1412    0.5194   64.3393 F       1  ZINC000532153088   -0.1300
     24 C24       -11.9265   -0.8322   62.5590 C.ar    1  ZINC000532153088   -0.2000
     25 C25       -11.6600   -1.6542   61.4780 C.ar    1  ZINC000532153088    0.1600
     26 F26       -12.6777   -2.1863   60.7664 F       1  ZINC000532153088   -0.1100
     27 C27        -9.6733   -0.9962   58.4359 C.3     1  ZINC000532153088    0.0200
     28 C28       -10.1753   -0.0297   57.3612 C.3     1  ZINC000532153088   -0.2200
     29 C29       -10.2398    0.3672   58.8374 C.3     1  ZINC000532153088   -0.1700
     30 H30       -16.4955   -2.9886   62.4871 H       1  ZINC000532153088    0.0700
     31 H31       -15.5834   -3.6187   61.0945 H       1  ZINC000532153088    0.0600
     32 H32       -15.7667   -1.8622   61.3173 H       1  ZINC000532153088    0.0700
     33 H33       -18.0266   -3.8270   60.7259 H       1  ZINC000532153088    0.0600
     34 H34       -17.9935   -0.7844   60.9677 H       1  ZINC000532153088    0.0600
     35 H35       -19.3965   -1.7730   60.4959 H       1  ZINC000532153088    0.0600
     36 H36       -18.7223   -1.9107   62.1374 H       1  ZINC000532153088    0.0700
     37 H37       -15.2978   -3.3910   59.0988 H       1  ZINC000532153088    0.0600
     38 H38       -16.5950   -4.6040   58.9797 H       1  ZINC000532153088    0.0600
     39 H39       -18.1818   -2.5529   57.0762 H       1  ZINC000532153088    0.1300
     40 H40       -18.1319   -2.3657   54.6213 H       1  ZINC000532153088    0.1200
     41 H41       -16.1818   -3.1885   53.3633 H       1  ZINC000532153088    0.1300
     42 H42       -14.2811   -4.1980   54.5601 H       1  ZINC000532153088    0.1300
     43 H43       -14.2682   -4.7089   58.2678 H       1  ZINC000532153088    0.0800
     44 H44       -13.7510   -5.5146   56.7673 H       1  ZINC000532153088    0.0800
     45 H45       -12.9239   -2.7998   56.7057 H       1  ZINC000532153088    0.4000
     46 H46        -9.5534   -3.7093   57.6253 H       1  ZINC000532153088    0.0700
     47 H47       -10.5063   -2.5628   56.6527 H       1  ZINC000532153088    0.1100
     48 H48       -10.5973   -3.7791   60.0790 H       1  ZINC000532153088    0.0900
     49 H49        -8.9884   -3.0370   59.9086 H       1  ZINC000532153088    0.0500
     50 H50        -8.2868   -1.6158   61.5872 H       1  ZINC000532153088    0.1400
     51 H51        -8.7588   -0.1459   63.5047 H       1  ZINC000532153088    0.1400
     52 H52       -12.9481   -0.6124   62.8318 H       1  ZINC000532153088    0.1500
     53 H53        -8.5961   -1.1386   58.5217 H       1  ZINC000532153088    0.1200
     54 H54        -9.4281    0.4639   56.7396 H       1  ZINC000532153088    0.1000
     55 H55       -11.1142   -0.2734   56.8640 H       1  ZINC000532153088    0.1000
     56 H56       -11.2212    0.3846   59.3114 H       1  ZINC000532153088    0.1000
     57 H57        -9.5352    1.1218   59.1870 H       1  ZINC000532153088    0.1000
@<TRIPOS>BOND
     1     1     2    1
     2     1    30    1
     3     1    31    1
     4     1    32    1
     5     2     3    1
     6     2     4    1
     7     2    33    1
     8     3    34    1
     9     3    35    1
    10     3    36    1
    11     4     5    1
    12     5     6    1
    13     5    37    1
    14     5    38    1
    15     6    11   ar
    16     6     7   ar
    17     7     8   ar
    18     7    39    1
    19     8     9   ar
    20     8    40    1
    21     9    10   ar
    22     9    41    1
    23    10    11   ar
    24    10    42    1
    25    11    12    1
    26    12    13    1
    27    12    43    1
    28    12    44    1
    29    13    14   am
    30    13    45    1
    31    14    15    2
    32    14    16    1
    33    16    17    1
    34    16    46    1
    35    16    47    1
    36    17    18    1
    37    17    27    1
    38    18    19    1
    39    18    48    1
    40    18    49    1
    41    19    25   ar
    42    19    20   ar
    43    20    21   ar
    44    20    50    1
    45    21    22   ar
    46    21    51    1
    47    22    23    1
    48    22    24   ar
    49    24    25   ar
    50    24    52    1
    51    25    26    1
    52    27    29    1
    53    27    28    1
    54    27    53    1
    55    28    29    1
    56    28    54    1
    57    28    55    1
    58    29    56    1
    59    29    57    1
@<TRIPOS>SUBSTRUCTURE
     1 ZINC000532153088        1 TEMP              0 ****  ****    0 ROOT


##########                                Name:    ZINC000054627026
##########                DOCK_Rotatable_Bonds:                   5
##########                         Heavy_Atoms:                  28
##########                    Molecular_Weight:              370.37
##########                DOCK_Rotatable_Bonds:                   5
##########                       Formal_Charge:         6.85453e-07
##########                     HBond_Acceptors:                   8
##########                        HBond_Donors:                   2
##########                         Heavy_Atoms:                  28
##########                          Grid_Score:          -32.363449
##########                     Grid_vdw_energy:          -31.620745
##########                      Grid_es_energy:           -0.742705
##########           Internal_energy_repulsive:            4.366076

@<TRIPOS>MOLECULE
ZINC000054627026
 42 46 1 0 0
SMALL
USER_CHARGES


@<TRIPOS>ATOM
      1 O1        -12.4186   -5.8568   58.1702 O.2     1  ZINC000054627026   -0.5200
      2 C2        -12.9671   -5.1483   57.3481 C.2     1  ZINC000054627026    0.6100
      3 N3        -12.6712   -3.8349   57.2856 N.am    1  ZINC000054627026   -0.6500
      4 C4        -11.7362   -3.2850   58.1714 C.ar    1  ZINC000054627026    0.1400
      5 C5        -10.4000   -3.1801   57.7910 C.ar    1  ZINC000054627026   -0.0900
      6 C6         -9.4696   -2.6403   58.6533 C.ar    1  ZINC000054627026   -0.0900
      7 C7         -9.8625   -2.1979   59.9080 C.ar    1  ZINC000054627026    0.0500
      8 N8         -9.1912   -1.6251   60.9742 N.pl3   1  ZINC000054627026   -0.5900
      9 C9        -10.1163   -1.3989   61.9604 C.2     1  ZINC000054627026    0.3700
     10 C10        -9.8267   -0.7993   63.2713 C.2     1  ZINC000054627026    0.0200
     11 C11       -10.7340   -0.2076   64.0989 C.2     1  ZINC000054627026   -0.1200
     12 C12       -10.0251    0.2218   65.2355 C.2     1  ZINC000054627026   -0.2200
     13 C13        -8.7339   -0.1235   65.0511 C.2     1  ZINC000054627026   -0.0100
     14 O14        -8.6188   -0.7439   63.8671 O.3     1  ZINC000054627026   -0.1700
     15 N15       -11.3009   -1.7985   61.5565 N.2     1  ZINC000054627026   -0.4600
     16 C16       -11.2092   -2.2998   60.3009 C.ar    1  ZINC000054627026    0.0700
     17 C17       -12.1453   -2.8441   59.4161 C.ar    1  ZINC000054627026   -0.0900
     18 C18       -13.9518   -5.7275   56.4152 C.2     1  ZINC000054627026   -0.1000
     19 C19       -14.7057   -5.0292   55.5148 C.2     1  ZINC000054627026    0.1000
     20 N20       -15.4707   -5.9319   54.8630 N.pl3   1  ZINC000054627026   -0.3100
     21 C21       -16.4004   -5.6629   53.8483 C.ar    1  ZINC000054627026    0.1300
     22 C22       -16.6149   -4.3566   53.4299 C.ar    1  ZINC000054627026   -0.1200
     23 C23       -17.5309   -4.0949   52.4299 C.ar    1  ZINC000054627026   -0.1000
     24 C24       -18.2344   -5.1322   51.8458 C.ar    1  ZINC000054627026   -0.1100
     25 C25       -18.0233   -6.4343   52.2609 C.ar    1  ZINC000054627026   -0.1000
     26 C26       -17.1040   -6.7029   53.2561 C.ar    1  ZINC000054627026   -0.1000
     27 N27       -15.1555   -7.1897   55.3964 N.2     1  ZINC000054627026   -0.0500
     28 N28       -14.2549   -7.0324   56.3029 N.2     1  ZINC000054627026   -0.2000
     29 H29       -13.1056   -3.2706   56.6271 H       1  ZINC000054627026    0.4200
     30 H30       -10.0913   -3.5240   56.8149 H       1  ZINC000054627026    0.1500
     31 H31        -8.4352   -2.5622   58.3522 H       1  ZINC000054627026    0.1300
     32 H32        -8.2435   -1.4223   61.0161 H       1  ZINC000054627026    0.4300
     33 H33       -11.7921   -0.0905   63.9170 H       1  ZINC000054627026    0.1600
     34 H34       -10.4368    0.7320   66.0938 H       1  ZINC000054627026    0.1600
     35 H35        -7.9270    0.0653   65.7437 H       1  ZINC000054627026    0.2100
     36 H36       -13.1831   -2.9225   59.7050 H       1  ZINC000054627026    0.1400
     37 H37       -14.6928   -3.9612   55.3551 H       1  ZINC000054627026    0.2100
     38 H38       -16.0662   -3.5459   53.8861 H       1  ZINC000054627026    0.1400
     39 H39       -17.6982   -3.0789   52.1040 H       1  ZINC000054627026    0.1400
     40 H40       -18.9504   -4.9251   51.0643 H       1  ZINC000054627026    0.1400
     41 H41       -18.5744   -7.2424   51.8031 H       1  ZINC000054627026    0.1400
     42 H42       -16.9396   -7.7201   53.5798 H       1  ZINC000054627026    0.1400
@<TRIPOS>BOND
     1     1     2    2
     2     2     3   am
     3     2    18    1
     4     3     4    1
     5     3    29    1
     6     4    17   ar
     7     4     5   ar
     8     5     6   ar
     9     5    30    1
    10     6     7   ar
    11     6    31    1
    12     7    16   ar
    13     7     8    1
    14     8     9    1
    15     8    32    1
    16     9    10    1
    17     9    15    2
    18    10    14    1
    19    10    11    2
    20    11    12    1
    21    11    33    1
    22    12    13    2
    23    12    34    1
    24    13    14    1
    25    13    35    1
    26    15    16    1
    27    16    17   ar
    28    17    36    1
    29    18    28    1
    30    18    19    2
    31    19    20    1
    32    19    37    1
    33    20    21    1
    34    20    27    1
    35    21    26   ar
    36    21    22   ar
    37    22    23   ar
    38    22    38    1
    39    23    24   ar
    40    23    39    1
    41    24    25   ar
    42    24    40    1
    43    25    26   ar
    44    25    41    1
    45    26    42    1
    46    27    28    2
@<TRIPOS>SUBSTRUCTURE
     1 ZINC000054627026        1 TEMP              0 ****  ****    0 ROOT


##########                                Name:    ZINC000753658424
##########                DOCK_Rotatable_Bonds:                   8
##########                         Heavy_Atoms:                  24
##########                    Molecular_Weight:             332.399
##########                DOCK_Rotatable_Bonds:                   8
##########                       Formal_Charge:        -9.16421e-07
##########                     HBond_Acceptors:                   6
##########                        HBond_Donors:                   3
##########                         Heavy_Atoms:                  24
##########                          Grid_Score:          -32.273426
##########                     Grid_vdw_energy:          -30.529325
##########                      Grid_es_energy:           -1.744099
##########           Internal_energy_repulsive:           18.471359

@<TRIPOS>MOLECULE
ZINC000753658424
 48 49 1 0 0
SMALL
USER_CHARGES


@<TRIPOS>ATOM
      1 C1        -10.1896    2.6866   65.3887 C.3     1  ZINC000753658424   -0.2000
      2 C2        -10.9409    1.3834   65.2980 C.2     1  ZINC000753658424    0.4400
      3 O3        -12.0146    1.2625   65.8499 O.2     1  ZINC000753658424   -0.4500
      4 C4        -10.3745    0.2615   64.5429 C.2     1  ZINC000753658424   -0.2500
      5 C5         -9.3618   -0.5873   64.9620 C.2     1  ZINC000753658424    0.1000
      6 C6         -8.6439   -0.5180   66.2852 C.3     1  ZINC000753658424   -0.1000
      7 N7         -9.1304   -1.4809   63.9893 N.pl3   1  ZINC000753658424   -0.5300
      8 C8         -9.9785   -1.2329   62.9314 C.2     1  ZINC000753658424   -0.0600
      9 C9        -10.0326   -1.9944   61.6769 C.2     1  ZINC000753658424    0.5900
     10 O10       -10.9065   -2.8235   61.5058 O.2     1  ZINC000753658424   -0.5200
     11 N11        -9.1143   -1.7748   60.7152 N.am    1  ZINC000753658424   -0.7300
     12 C12        -9.1673   -2.5357   59.4644 C.3     1  ZINC000753658424    0.0900
     13 C13       -10.1634   -1.8764   58.5083 C.3     1  ZINC000753658424    0.1900
     14 H14       -11.1391   -1.8093   58.9894 H       1  ZINC000753658424    0.1300
     15 O15       -10.2719   -2.6605   57.3185 O.3     1  ZINC000753658424   -0.5500
     16 C16        -9.6810   -0.4929   58.1558 C.2     1  ZINC000753658424   -0.0600
     17 C17       -10.0895    0.6527   58.7303 C.2     1  ZINC000753658424   -0.1800
     18 C18        -9.3836    1.7022   58.0984 C.2     1  ZINC000753658424   -0.2100
     19 C19        -8.5860    1.1351   57.1757 C.2     1  ZINC000753658424    0.0000
     20 C20        -7.6445    1.8676   56.2546 C.3     1  ZINC000753658424   -0.0800
     21 O21        -8.7660   -0.1951   57.2189 O.3     1  ZINC000753658424   -0.1700
     22 C22       -10.7621   -0.1647   63.2497 C.2     1  ZINC000753658424   -0.0100
     23 C23       -11.8317    0.4518   62.3856 C.3     1  ZINC000753658424   -0.0500
     24 C24       -13.1957    0.2690   63.0542 C.3     1  ZINC000753658424   -0.1500
     25 C25       -11.5466    1.9445   62.2083 C.3     1  ZINC000753658424   -0.1500
     26 H26       -10.7975    3.4203   65.9181 H       1  ZINC000753658424    0.0800
     27 H27        -9.2558    2.5308   65.9288 H       1  ZINC000753658424    0.1000
     28 H28        -9.9723    3.0512   64.3848 H       1  ZINC000753658424    0.0900
     29 H29        -9.1185   -1.1983   66.9922 H       1  ZINC000753658424    0.0900
     30 H30        -7.6013   -0.8053   66.1484 H       1  ZINC000753658424    0.0800
     31 H31        -8.6924    0.5000   66.6720 H       1  ZINC000753658424    0.0900
     32 H32        -8.4699   -2.1905   64.0246 H       1  ZINC000753658424    0.4200
     33 H33        -8.4183   -1.1129   60.8512 H       1  ZINC000753658424    0.4000
     34 H34        -8.1786   -2.5500   59.0058 H       1  ZINC000753658424    0.0900
     35 H35        -9.4858   -3.5569   59.6734 H       1  ZINC000753658424    0.0800
     36 H36       -10.6422   -3.5423   57.4610 H       1  ZINC000753658424    0.3900
     37 H37       -10.8175    0.7519   59.5219 H       1  ZINC000753658424    0.1500
     38 H38        -9.4687    2.7569   58.3150 H       1  ZINC000753658424    0.1500
     39 H39        -6.6687    1.9604   56.7313 H       1  ZINC000753658424    0.0800
     40 H40        -7.5422    1.3117   55.3226 H       1  ZINC000753658424    0.0800
     41 H41        -8.0418    2.8605   56.0437 H       1  ZINC000753658424    0.0900
     42 H42       -11.8368   -0.0355   61.4107 H       1  ZINC000753658424    0.1100
     43 H43       -13.2316    0.8552   63.9725 H       1  ZINC000753658424    0.0500
     44 H44       -13.9804    0.6061   62.3770 H       1  ZINC000753658424    0.0600
     45 H45       -13.3467   -0.7846   63.2895 H       1  ZINC000753658424    0.0600
     46 H46       -10.6127    2.0735   61.6612 H       1  ZINC000753658424    0.0500
     47 H47       -12.3612    2.4062   61.6504 H       1  ZINC000753658424    0.0600
     48 H48       -11.4627    2.4171   63.1868 H       1  ZINC000753658424    0.0600
@<TRIPOS>BOND
     1     1     2    1
     2     1    26    1
     3     1    27    1
     4     1    28    1
     5     2     3    2
     6     2     4    1
     7     4    22    1
     8     4     5    2
     9     5     6    1
    10     5     7    1
    11     6    29    1
    12     6    30    1
    13     6    31    1
    14     7     8    1
    15     7    32    1
    16     8     9    1
    17     8    22    2
    18     9    10    2
    19     9    11   am
    20    11    12    1
    21    11    33    1
    22    12    13    1
    23    12    34    1
    24    12    35    1
    25    13    14    1
    26    13    15    1
    27    13    16    1
    28    15    36    1
    29    16    21    1
    30    16    17    2
    31    17    18    1
    32    17    37    1
    33    18    19    2
    34    18    38    1
    35    19    20    1
    36    19    21    1
    37    20    39    1
    38    20    40    1
    39    20    41    1
    40    22    23    1
    41    23    24    1
    42    23    25    1
    43    23    42    1
    44    24    43    1
    45    24    44    1
    46    24    45    1
    47    25    46    1
    48    25    47    1
    49    25    48    1
@<TRIPOS>SUBSTRUCTURE
     1 ZINC000753658424        1 TEMP              0 ****  ****    0 ROOT


##########                                Name:    ZINC000482540246
##########                DOCK_Rotatable_Bonds:                  10
##########                         Heavy_Atoms:                  30
##########                    Molecular_Weight:              409.46
##########                DOCK_Rotatable_Bonds:                  10
##########                       Formal_Charge:         2.83122e-07
##########                     HBond_Acceptors:                   7
##########                        HBond_Donors:                   2
##########                         Heavy_Atoms:                  30
##########                          Grid_Score:          -32.244839
##########                     Grid_vdw_energy:          -32.297871
##########                      Grid_es_energy:            0.053032
##########           Internal_energy_repulsive:           16.901396

@<TRIPOS>MOLECULE
ZINC000482540246
 54 56 1 0 0
SMALL
USER_CHARGES


@<TRIPOS>ATOM
      1 C1         -9.6685   -0.6318   52.4953 C.3     1  ZINC000482540246    0.0400
      2 O2         -9.5976    0.6497   51.8668 O.3     1  ZINC000482540246   -0.3100
      3 C3         -9.1597    1.6849   52.6266 C.ar    1  ZINC000482540246    0.3300
      4 C4         -8.8022    1.4635   53.9502 C.ar    1  ZINC000482540246   -0.1800
      5 C5         -8.3570    2.5281   54.7147 C.ar    1  ZINC000482540246   -0.0100
      6 C6         -7.9591    2.3296   56.1547 C.3     1  ZINC000482540246    0.2000
      7 H7         -8.5743    2.9643   56.7923 H       1  ZINC000482540246    0.1000
      8 C8         -6.4859    2.7028   56.3327 C.3     1  ZINC000482540246   -0.1600
      9 N9         -8.1558    0.9264   56.5266 N.am    1  ZINC000482540246   -0.7400
     10 C10        -9.0704    0.5987   57.4607 C.2     1  ZINC000482540246    0.7100
     11 O11        -9.7312    1.4679   57.9958 O.2     1  ZINC000482540246   -0.5800
     12 N12        -9.2526   -0.6924   57.8018 N.am    1  ZINC000482540246   -0.7400
     13 C13       -10.2481   -1.0487   58.8159 C.3     1  ZINC000482540246    0.2100
     14 H14       -11.1046   -0.3795   58.7351 H       1  ZINC000482540246    0.1200
     15 C15        -9.6274   -0.9170   60.2081 C.3     1  ZINC000482540246    0.0500
     16 O16       -10.5212   -1.4607   61.1815 O.3     1  ZINC000482540246   -0.3000
     17 C17       -10.4258   -0.9736   62.4472 C.ar    1  ZINC000482540246    0.1000
     18 C18        -9.2180   -1.0324   63.1248 C.ar    1  ZINC000482540246   -0.1800
     19 C19        -9.1231   -0.5361   64.4113 C.ar    1  ZINC000482540246   -0.0900
     20 C20       -10.2310    0.0190   65.0236 C.ar    1  ZINC000482540246   -0.1300
     21 C21       -11.4382    0.0794   64.3513 C.ar    1  ZINC000482540246   -0.1200
     22 C22       -11.5374   -0.4105   63.0619 C.ar    1  ZINC000482540246    0.0700
     23 F23       -12.7165   -0.3517   62.4049 F       1  ZINC000482540246   -0.1300
     24 C24       -10.6990   -2.4703   58.5995 C.ar    1  ZINC000482540246   -0.1000
     25 C25       -12.0426   -2.7520   58.4367 C.ar    1  ZINC000482540246   -0.0800
     26 C26       -12.4562   -4.0560   58.2383 C.ar    1  ZINC000482540246   -0.1200
     27 C27       -11.5264   -5.0782   58.2020 C.ar    1  ZINC000482540246   -0.1200
     28 C28       -10.1828   -4.7964   58.3639 C.ar    1  ZINC000482540246   -0.1200
     29 C29        -9.7687   -3.4918   58.5580 C.ar    1  ZINC000482540246   -0.1000
     30 C30        -8.2850    3.7822   54.1248 C.ar    1  ZINC000482540246   -0.2100
     31 C31        -8.6568    3.9294   52.8030 C.ar    1  ZINC000482540246    0.1500
     32 N32        -9.0722    2.8944   52.0982 N.ar    1  ZINC000482540246   -0.5400
     33 H33       -10.0328   -1.3682   51.7789 H       1  ZINC000482540246    0.1000
     34 H34        -8.6766   -0.9219   52.8417 H       1  ZINC000482540246    0.0600
     35 H35       -10.3501   -0.5828   53.3444 H       1  ZINC000482540246    0.0600
     36 H36        -8.8710    0.4739   54.3774 H       1  ZINC000482540246    0.1500
     37 H37        -5.8708    2.0681   55.6950 H       1  ZINC000482540246    0.0600
     38 H38        -6.3396    3.7468   56.0559 H       1  ZINC000482540246    0.0700
     39 H39        -6.1981    2.5592   57.3742 H       1  ZINC000482540246    0.0700
     40 H40        -7.6279    0.2331   56.1006 H       1  ZINC000482540246    0.4000
     41 H41        -8.7247   -1.3857   57.3758 H       1  ZINC000482540246    0.4000
     42 H42        -8.6832   -1.4608   60.2378 H       1  ZINC000482540246    0.0800
     43 H43        -9.4476    0.1354   60.4277 H       1  ZINC000482540246    0.0800
     44 H44        -8.3515   -1.4663   62.6478 H       1  ZINC000482540246    0.1400
     45 H45        -8.1820   -0.5825   64.9392 H       1  ZINC000482540246    0.1300
     46 H46       -10.1539    0.4060   66.0288 H       1  ZINC000482540246    0.1400
     47 H47       -12.3025    0.5132   64.8321 H       1  ZINC000482540246    0.1400
     48 H48       -12.7691   -1.9533   58.4650 H       1  ZINC000482540246    0.1200
     49 H49       -13.5060   -4.2761   58.1118 H       1  ZINC000482540246    0.1200
     50 H50       -11.8497   -6.0970   58.0476 H       1  ZINC000482540246    0.1200
     51 H51        -9.4563   -5.5950   58.3359 H       1  ZINC000482540246    0.1200
     52 H52        -8.7190   -3.2716   58.6845 H       1  ZINC000482540246    0.1200
     53 H53        -7.9422    4.6339   54.6935 H       1  ZINC000482540246    0.1400
     54 H54        -8.6026    4.9031   52.3392 H       1  ZINC000482540246    0.1600
@<TRIPOS>BOND
     1     1     2    1
     2     1    33    1
     3     1    34    1
     4     1    35    1
     5     2     3    1
     6     3    32   ar
     7     3     4   ar
     8     4     5   ar
     9     4    36    1
    10     5     6    1
    11     5    30   ar
    12     6     7    1
    13     6     8    1
    14     6     9    1
    15     8    37    1
    16     8    38    1
    17     8    39    1
    18     9    10   am
    19     9    40    1
    20    10    11    2
    21    10    12   am
    22    12    13    1
    23    12    41    1
    24    13    14    1
    25    13    15    1
    26    13    24    1
    27    15    16    1
    28    15    42    1
    29    15    43    1
    30    16    17    1
    31    17    22   ar
    32    17    18   ar
    33    18    19   ar
    34    18    44    1
    35    19    20   ar
    36    19    45    1
    37    20    21   ar
    38    20    46    1
    39    21    22   ar
    40    21    47    1
    41    22    23    1
    42    24    29   ar
    43    24    25   ar
    44    25    26   ar
    45    25    48    1
    46    26    27   ar
    47    26    49    1
    48    27    28   ar
    49    27    50    1
    50    28    29   ar
    51    28    51    1
    52    29    52    1
    53    30    31   ar
    54    30    53    1
    55    31    32   ar
    56    31    54    1
@<TRIPOS>SUBSTRUCTURE
     1 ZINC000482540246        1 TEMP              0 ****  ****    0 ROOT


##########                                Name:    ZINC000291574087
##########                DOCK_Rotatable_Bonds:                   8
##########                         Heavy_Atoms:                  23
##########                    Molecular_Weight:             387.249
##########                DOCK_Rotatable_Bonds:                   8
##########                       Formal_Charge:          -0.0400007
##########                     HBond_Acceptors:                   6
##########                        HBond_Donors:                   2
##########                         Heavy_Atoms:                  23
##########                          Grid_Score:          -32.233711
##########                     Grid_vdw_energy:          -26.604179
##########                      Grid_es_energy:           -5.629533
##########           Internal_energy_repulsive:           33.602325

@<TRIPOS>MOLECULE
ZINC000291574087
 43 44 1 0 0
SMALL
USER_CHARGES


@<TRIPOS>ATOM
      1 C1         -3.7737    1.2923   64.4398 C.3     1  ZINC000291574087    0.0200
      2 O2         -4.4751    2.5370   64.4662 O.3     1  ZINC000291574087   -0.3700
      3 C3         -4.8176    2.9834   65.7798 C.3     1  ZINC000291574087    0.1400
      4 C4         -3.5502    3.4215   66.5162 C.3     1  ZINC000291574087   -0.1500
      5 C5         -5.4853    1.8414   66.5486 C.3     1  ZINC000291574087    0.0900
      6 N6         -6.6162    1.3262   65.7729 N.am    1  ZINC000291574087   -0.6900
      7 C7         -7.1117    0.1008   66.0366 C.2     1  ZINC000291574087    0.5100
      8 O8         -6.6202   -0.5762   66.9156 O.2     1  ZINC000291574087   -0.5100
      9 C9         -8.2658   -0.4237   65.2470 C.2     1  ZINC000291574087    0.5100
     10 O10        -8.7800   -1.4800   65.5521 O.2     1  ZINC000291574087   -0.4900
     11 N11        -8.7363    0.2761   64.1956 N.am    1  ZINC000291574087   -0.6400
     12 C12        -9.8171   -0.2150   63.4561 C.ar    1  ZINC000291574087    0.1300
     13 C13        -9.5931   -1.0250   62.3510 C.ar    1  ZINC000291574087   -0.1000
     14 C14       -10.6625   -1.5093   61.6226 C.ar    1  ZINC000291574087   -0.0400
     15 C15       -10.4191   -2.3884   60.4231 C.3     1  ZINC000291574087   -0.1300
     16 C16       -11.9563   -1.1887   61.9926 C.ar    1  ZINC000291574087   -0.0900
     17 Br17      -13.4162   -1.8554   60.9925 Br      1  ZINC000291574087   -0.0300
     18 C18       -12.1847   -0.3817   63.0935 C.ar    1  ZINC000291574087   -0.1000
     19 C19       -11.1194    0.1024   63.8298 C.ar    1  ZINC000291574087    0.0700
     20 F20       -11.3421    0.8902   64.9044 F       1  ZINC000291574087   -0.1300
     21 C21        -5.7842    4.1652   65.6808 C.3     1  ZINC000291574087   -0.1900
     22 C22        -7.0934    4.0749   66.4674 C.3     1  ZINC000291574087   -0.1700
     23 C23        -5.9847    5.0207   66.9334 C.3     1  ZINC000291574087   -0.1600
     24 H24        -3.5502    1.0230   63.4074 H       1  ZINC000291574087    0.0900
     25 H25        -2.8434    1.3874   64.9999 H       1  ZINC000291574087    0.0400
     26 H26        -4.3923    0.5169   64.8917 H       1  ZINC000291574087    0.0500
     27 H27        -3.0745    4.2350   65.9685 H       1  ZINC000291574087    0.0700
     28 H28        -3.8114    3.7620   67.5181 H       1  ZINC000291574087    0.0800
     29 H29        -2.8615    2.5795   66.5867 H       1  ZINC000291574087    0.0700
     30 H30        -4.7625    1.0421   66.7121 H       1  ZINC000291574087    0.0900
     31 H31        -5.8424    2.2106   67.5100 H       1  ZINC000291574087    0.0800
     32 H32        -7.0083    1.8669   65.0695 H       1  ZINC000291574087    0.4200
     33 H33        -8.3256    1.1203   63.9518 H       1  ZINC000291574087    0.4300
     34 H34        -8.5836   -1.2761   62.0609 H       1  ZINC000291574087    0.1600
     35 H35       -10.3944   -3.4321   60.7366 H       1  ZINC000291574087    0.0800
     36 H36       -11.2212   -2.2455   59.6990 H       1  ZINC000291574087    0.0800
     37 H37        -9.4656   -2.1238   59.9661 H       1  ZINC000291574087    0.0800
     38 H38       -13.1960   -0.1328   63.3797 H       1  ZINC000291574087    0.1500
     39 H39        -5.8104    4.6717   64.7160 H       1  ZINC000291574087    0.1100
     40 H40        -7.9813    4.5217   66.0201 H       1  ZINC000291574087    0.1000
     41 H41        -7.2661    3.1734   67.0554 H       1  ZINC000291574087    0.1000
     42 H42        -5.4280    4.7416   67.8279 H       1  ZINC000291574087    0.1000
     43 H43        -6.1432    6.0899   66.7925 H       1  ZINC000291574087    0.1000
@<TRIPOS>BOND
     1     1     2    1
     2     1    24    1
     3     1    25    1
     4     1    26    1
     5     2     3    1
     6     3     4    1
     7     3     5    1
     8     3    21    1
     9     4    27    1
    10     4    28    1
    11     4    29    1
    12     5     6    1
    13     5    30    1
    14     5    31    1
    15     6     7   am
    16     6    32    1
    17     7     8    2
    18     7     9    1
    19     9    10    2
    20     9    11   am
    21    11    12    1
    22    11    33    1
    23    12    19   ar
    24    12    13   ar
    25    13    14   ar
    26    13    34    1
    27    14    15    1
    28    14    16   ar
    29    15    35    1
    30    15    36    1
    31    15    37    1
    32    16    17    1
    33    16    18   ar
    34    18    19   ar
    35    18    38    1
    36    19    20    1
    37    21    23    1
    38    21    22    1
    39    21    39    1
    40    22    23    1
    41    22    40    1
    42    22    41    1
    43    23    42    1
    44    23    43    1
@<TRIPOS>SUBSTRUCTURE
     1 ZINC000291574087        1 TEMP              0 ****  ****    0 ROOT


##########                                Name:    ZINC001124460178
##########                DOCK_Rotatable_Bonds:                  12
##########                         Heavy_Atoms:                  22
##########                    Molecular_Weight:             328.479
##########                DOCK_Rotatable_Bonds:                  12
##########                       Formal_Charge:          -0.0100003
##########                     HBond_Acceptors:                   7
##########                        HBond_Donors:                   2
##########                         Heavy_Atoms:                  22
##########                          Grid_Score:          -32.202793
##########                     Grid_vdw_energy:          -32.055214
##########                      Grid_es_energy:           -0.147579
##########           Internal_energy_repulsive:           25.714054

@<TRIPOS>MOLECULE
ZINC001124460178
 50 50 1 0 0
SMALL
USER_CHARGES


@<TRIPOS>ATOM
      1 C1        -14.4703   -6.1519   56.4926 C.3     1  ZINC001124460178   -0.0700
      2 C2        -13.5925   -4.9273   56.4611 C.2     1  ZINC001124460178    0.3100
      3 N3        -13.7157   -4.0371   55.5200 N.2     1  ZINC001124460178   -0.5000
      4 S4        -12.5539   -2.8437   55.8584 S.3     1  ZINC001124460178    0.1800
      5 C5        -11.9598   -3.6277   57.2731 C.2     1  ZINC001124460178    0.3400
      6 N6        -10.9472   -3.1978   58.1116 N.pl3   1  ZINC001124460178   -0.6600
      7 C7        -11.0876   -3.3408   59.5628 C.3     1  ZINC001124460178    0.0900
      8 C8         -9.9254   -2.6308   60.2600 C.3     1  ZINC001124460178    0.0800
      9 H9         -9.8535   -2.9775   61.2909 H       1  ZINC001124460178    0.1200
     10 O10        -8.7072   -2.9237   59.5729 O.3     1  ZINC001124460178   -0.5500
     11 C11       -10.1684   -1.1203   60.2458 C.3     1  ZINC001124460178    0.0900
     12 N12       -10.6378   -0.6887   61.5649 N.am    1  ZINC001124460178   -0.6100
     13 C13       -12.0545   -0.3789   61.7730 C.3     1  ZINC001124460178    0.0800
     14 C14        -9.7663   -0.5766   62.5868 C.2     1  ZINC001124460178    0.5100
     15 O15        -8.5932   -0.8316   62.4140 O.2     1  ZINC001124460178   -0.5400
     16 C16       -10.2494   -0.1344   63.9440 C.3     1  ZINC001124460178   -0.1400
     17 C17        -9.2352   -0.5568   65.0090 C.3     1  ZINC001124460178   -0.1100
     18 C18        -8.1427    0.5082   65.1236 C.3     1  ZINC001124460178   -0.1200
     19 C19        -7.2497    0.1954   66.3258 C.3     1  ZINC001124460178   -0.1200
     20 C20        -6.1605    1.2634   66.4437 C.3     1  ZINC001124460178   -0.1000
     21 C21        -5.3147    1.2721   65.1688 C.3     1  ZINC001124460178   -0.1500
     22 C22        -6.8101    2.6354   66.6343 C.3     1  ZINC001124460178   -0.1500
     23 N23       -12.6829   -4.7219   57.3851 N.2     1  ZINC001124460178   -0.5800
     24 H24       -15.3720   -5.9379   57.0664 H       1  ZINC001124460178    0.0900
     25 H25       -14.7446   -6.4287   55.4747 H       1  ZINC001124460178    0.0900
     26 H26       -13.9292   -6.9748   56.9598 H       1  ZINC001124460178    0.0900
     27 H27       -10.1441   -2.8016   57.7387 H       1  ZINC001124460178    0.4200
     28 H28       -12.0298   -2.8954   59.8824 H       1  ZINC001124460178    0.0800
     29 H29       -11.0779   -4.3985   59.8263 H       1  ZINC001124460178    0.0900
     30 H30        -7.9118   -2.7786   60.1033 H       1  ZINC001124460178    0.3800
     31 H31        -9.2388   -0.6049   60.0046 H       1  ZINC001124460178    0.0900
     32 H32       -10.9220   -0.8805   59.4957 H       1  ZINC001124460178    0.1000
     33 H33       -12.5820   -1.2812   62.0823 H       1  ZINC001124460178    0.0600
     34 H34       -12.1500    0.3816   62.5480 H       1  ZINC001124460178    0.0800
     35 H35       -12.4853   -0.0067   60.8436 H       1  ZINC001124460178    0.0800
     36 H36       -10.3579    0.9501   63.9556 H       1  ZINC001124460178    0.0900
     37 H37       -11.2129   -0.5982   64.1557 H       1  ZINC001124460178    0.0900
     38 H38        -9.7400   -0.6643   65.9691 H       1  ZINC001124460178    0.0700
     39 H39        -8.7863   -1.5088   64.7259 H       1  ZINC001124460178    0.0700
     40 H40        -7.5408    0.5105   64.2148 H       1  ZINC001124460178    0.0600
     41 H41        -8.6024    1.4874   65.2574 H       1  ZINC001124460178    0.0600
     42 H42        -7.8522    0.1891   67.2341 H       1  ZINC001124460178    0.0600
     43 H43        -6.7869   -0.7821   66.1901 H       1  ZINC001124460178    0.0600
     44 H44        -5.5242    1.0404   67.3003 H       1  ZINC001124460178    0.0700
     45 H45        -5.9509    1.4951   64.3123 H       1  ZINC001124460178    0.0500
     46 H46        -4.5387    2.0330   65.2529 H       1  ZINC001124460178    0.0500
     47 H47        -4.8519    0.2947   65.0331 H       1  ZINC001124460178    0.0500
     48 H48        -7.4126    2.6292   67.5426 H       1  ZINC001124460178    0.0600
     49 H49        -6.0341    3.3963   66.7184 H       1  ZINC001124460178    0.0500
     50 H50        -7.4462    2.8584   65.7779 H       1  ZINC001124460178    0.0500
@<TRIPOS>BOND
     1     1     2    1
     2     1    24    1
     3     1    25    1
     4     1    26    1
     5     2    23    1
     6     2     3    2
     7     3     4    1
     8     4     5    1
     9     5     6    1
    10     5    23    2
    11     6     7    1
    12     6    27    1
    13     7     8    1
    14     7    28    1
    15     7    29    1
    16     8     9    1
    17     8    10    1
    18     8    11    1
    19    10    30    1
    20    11    12    1
    21    11    31    1
    22    11    32    1
    23    12    13    1
    24    12    14   am
    25    13    33    1
    26    13    34    1
    27    13    35    1
    28    14    15    2
    29    14    16    1
    30    16    17    1
    31    16    36    1
    32    16    37    1
    33    17    18    1
    34    17    38    1
    35    17    39    1
    36    18    19    1
    37    18    40    1
    38    18    41    1
    39    19    20    1
    40    19    42    1
    41    19    43    1
    42    20    21    1
    43    20    22    1
    44    20    44    1
    45    21    45    1
    46    21    46    1
    47    21    47    1
    48    22    48    1
    49    22    49    1
    50    22    50    1
@<TRIPOS>SUBSTRUCTURE
     1 ZINC001124460178        1 TEMP              0 ****  ****    0 ROOT


##########                                Name:    ZINC000432833246
##########                DOCK_Rotatable_Bonds:                   5
##########                         Heavy_Atoms:                  25
##########                    Molecular_Weight:             400.318
##########                DOCK_Rotatable_Bonds:                   5
##########                       Formal_Charge:        -3.20375e-07
##########                     HBond_Acceptors:                   4
##########                        HBond_Donors:                   1
##########                         Heavy_Atoms:                  25
##########                          Grid_Score:          -32.125282
##########                     Grid_vdw_energy:          -32.362339
##########                      Grid_es_energy:            0.237057
##########           Internal_energy_repulsive:            8.224372

@<TRIPOS>MOLECULE
ZINC000432833246
 47 51 1 0 0
SMALL
USER_CHARGES


@<TRIPOS>ATOM
      1 O1        -15.4613   -7.6547   55.3263 O.2     1  ZINC000432833246   -0.5200
      2 C2        -15.3812   -6.4593   55.5151 C.2     1  ZINC000432833246    0.5200
      3 C3        -14.5757   -5.8083   56.6179 C.3     1  ZINC000432833246   -0.1500
      4 C4        -14.4595   -4.3298   56.1803 C.3     1  ZINC000432833246   -0.1100
      5 H5        -13.5407   -4.1603   55.6187 H       1  ZINC000432833246    0.1000
      6 C6        -14.5406   -3.3935   57.3876 C.3     1  ZINC000432833246    0.1300
      7 N7        -13.3411   -3.5558   58.2130 N.pl3   1  ZINC000432833246   -0.7200
      8 C8        -13.1871   -2.8035   59.3676 C.ar    1  ZINC000432833246    0.2800
      9 C9        -11.9026   -2.5327   59.8964 C.ar    1  ZINC000432833246   -0.1500
     10 C10       -10.7415   -3.0125   59.2745 C.ar    1  ZINC000432833246   -0.0700
     11 C11        -9.5224   -2.7304   59.8136 C.ar    1  ZINC000432833246   -0.1300
     12 C12        -9.4145   -1.9710   60.9760 C.ar    1  ZINC000432833246   -0.0600
     13 C13       -10.5224   -1.4894   61.6053 C.ar    1  ZINC000432833246   -0.0800
     14 Br14      -10.3465   -0.4603   63.1820 Br      1  ZINC000432833246   -0.0300
     15 C15       -11.7976   -1.7601   61.0774 C.ar    1  ZINC000432833246    0.1900
     16 N16       -12.9023   -1.2992   61.6746 N.ar    1  ZINC000432833246   -0.5000
     17 C17       -14.0992   -1.5434   61.1935 C.ar    1  ZINC000432833246    0.2400
     18 C18       -15.3039   -0.9952   61.9139 C.3     1  ZINC000432833246   -0.1100
     19 C19       -16.4734   -1.9499   62.1624 C.3     1  ZINC000432833246   -0.1700
     20 C20       -15.5799   -1.5156   63.3260 C.3     1  ZINC000432833246   -0.1600
     21 C21       -14.2859   -2.2883   60.0372 C.ar    1  ZINC000432833246   -0.2700
     22 C22       -15.6993   -4.1715   55.2726 C.3     1  ZINC000432833246    0.1100
     23 N23       -15.9906   -5.5199   54.7715 N.am    1  ZINC000432833246   -0.5900
     24 C24       -16.8432   -5.8057   53.6150 C.3     1  ZINC000432833246    0.0800
     25 C25       -16.3270   -5.3886   52.2364 C.3     1  ZINC000432833246   -0.1900
     26 C26       -16.3593   -6.8679   52.6258 C.3     1  ZINC000432833246   -0.1900
     27 H27       -15.1011   -5.8842   57.5698 H       1  ZINC000432833246    0.1100
     28 H28       -13.5881   -6.2640   56.6887 H       1  ZINC000432833246    0.1000
     29 H29       -14.6076   -2.3615   57.0431 H       1  ZINC000432833246    0.0800
     30 H30       -15.4238   -3.6376   57.9780 H       1  ZINC000432833246    0.0700
     31 H31       -12.6549   -4.1896   57.9518 H       1  ZINC000432833246    0.4000
     32 H32       -10.8129   -3.6030   58.3731 H       1  ZINC000432833246    0.1300
     33 H33        -8.6285   -3.1006   59.3337 H       1  ZINC000432833246    0.1400
     34 H34        -8.4373   -1.7610   61.3850 H       1  ZINC000432833246    0.1400
     35 H35       -15.5409    0.0483   61.7068 H       1  ZINC000432833246    0.1300
     36 H36       -17.4802   -1.5345   62.1186 H       1  ZINC000432833246    0.1000
     37 H37       -16.3714   -2.9745   61.8048 H       1  ZINC000432833246    0.1000
     38 H38       -14.8902   -2.2544   63.7339 H       1  ZINC000432833246    0.0900
     39 H39       -15.9989   -0.8144   64.0477 H       1  ZINC000432833246    0.1000
     40 H40       -15.2830   -2.4722   59.6655 H       1  ZINC000432833246    0.1400
     41 H41       -16.5420   -3.7888   55.8484 H       1  ZINC000432833246    0.0800
     42 H42       -15.4752   -3.5032   54.4411 H       1  ZINC000432833246    0.0900
     43 H43       -17.9163   -5.7356   53.7932 H       1  ZINC000432833246    0.1300
     44 H44       -17.0603   -5.0439   51.5074 H       1  ZINC000432833246    0.1000
     45 H45       -15.3529   -4.9016   52.1899 H       1  ZINC000432833246    0.1300
     46 H46       -15.4066   -7.3540   52.8355 H       1  ZINC000432833246    0.0900
     47 H47       -17.1141   -7.4963   52.1530 H       1  ZINC000432833246    0.1000
@<TRIPOS>BOND
     1     1     2    2
     2     2    23   am
     3     2     3    1
     4     3     4    1
     5     3    27    1
     6     3    28    1
     7     4     5    1
     8     4     6    1
     9     4    22    1
    10     6     7    1
    11     6    29    1
    12     6    30    1
    13     7     8    1
    14     7    31    1
    15     8    21   ar
    16     8     9   ar
    17     9    15   ar
    18     9    10   ar
    19    10    11   ar
    20    10    32    1
    21    11    12   ar
    22    11    33    1
    23    12    13   ar
    24    12    34    1
    25    13    14    1
    26    13    15   ar
    27    15    16   ar
    28    16    17   ar
    29    17    18    1
    30    17    21   ar
    31    18    20    1
    32    18    19    1
    33    18    35    1
    34    19    20    1
    35    19    36    1
    36    19    37    1
    37    20    38    1
    38    20    39    1
    39    21    40    1
    40    22    23    1
    41    22    41    1
    42    22    42    1
    43    23    24    1
    44    24    26    1
    45    24    25    1
    46    24    43    1
    47    25    26    1
    48    25    44    1
    49    25    45    1
    50    26    46    1
    51    26    47    1
@<TRIPOS>SUBSTRUCTURE
     1 ZINC000432833246        1 TEMP              0 ****  ****    0 ROOT


##########                                Name:    ZINC000007167963
##########                DOCK_Rotatable_Bonds:                   8
##########                         Heavy_Atoms:                  25
##########                    Molecular_Weight:             378.433
##########                DOCK_Rotatable_Bonds:                   8
##########                       Formal_Charge:        -1.01328e-06
##########                     HBond_Acceptors:                  10
##########                        HBond_Donors:                   3
##########                         Heavy_Atoms:                  25
##########                          Grid_Score:          -32.089218
##########                     Grid_vdw_energy:          -28.912899
##########                      Grid_es_energy:           -3.176319
##########           Internal_energy_repulsive:            7.263522

@<TRIPOS>MOLECULE
ZINC000007167963
 39 41 1 0 0
SMALL
USER_CHARGES


@<TRIPOS>ATOM
      1 C1         -6.5781    0.3010   52.6160 C.3     1  ZINC000007167963   -0.0800
      2 C2         -6.6273    1.6331   53.3190 C.2     1  ZINC000007167963    0.0900
      3 C3         -5.7500    2.6587   53.1433 C.2     1  ZINC000007167963   -0.1500
      4 C4         -4.5801    2.6877   52.2406 C.2     1  ZINC000007167963    0.2600
      5 N5         -3.7313    3.6768   52.1018 N.2     1  ZINC000007167963   -0.2700
      6 N6         -2.8392    3.3562   51.2320 N.2     1  ZINC000007167963   -0.2800
      7 C7         -3.0829    2.1491   50.7806 C.2     1  ZINC000007167963    0.1200
      8 S8         -2.1383    1.2756   49.5767 S.3     1  ZINC000007167963    0.1500
      9 C9         -0.7158    2.3850   49.4279 C.3     1  ZINC000007167963   -0.1200
     10 H10        -1.0463    3.4172   49.5441 H       1  ZINC000007167963    0.1400
     11 C11         0.3069    2.0515   50.5158 C.3     1  ZINC000007167963   -0.1500
     12 C12        -0.0820    2.2102   48.0719 C.2     1  ZINC000007167963    0.5300
     13 O13        -0.1980    3.0773   47.2320 O.2     1  ZINC000007167963   -0.4900
     14 N14         0.6136    1.0901   47.7927 N.am    1  ZINC000007167963   -0.6100
     15 C15         1.1982    0.9300   46.5455 C.2     1  ZINC000007167963    0.0800
     16 C16         0.6436    0.2240   45.5097 C.2     1  ZINC000007167963   -0.2400
     17 C17        -0.6521   -0.4571   45.5939 C.2     1  ZINC000007167963    0.5900
     18 N18        -0.8692   -1.3760   46.5557 N.am    1  ZINC000007167963   -0.8400
     19 O19        -1.5316   -0.1927   44.7953 O.2     1  ZINC000007167963   -0.5600
     20 C20         1.4725    0.2234   44.3243 C.2     1  ZINC000007167963   -0.0900
     21 C21         2.5998    0.9037   44.4761 C.2     1  ZINC000007167963   -0.2800
     22 S22         2.7015    1.5899   46.0878 S.3     1  ZINC000007167963    0.3000
     23 O23        -4.1849    1.6972   51.4108 O.3     1  ZINC000007167963   -0.2000
     24 C24        -6.2080    3.7311   54.0363 C.2     1  ZINC000007167963   -0.1800
     25 C25        -7.3011    3.2562   54.6555 C.2     1  ZINC000007167963   -0.0300
     26 O26        -7.5458    2.0113   54.2193 O.3     1  ZINC000007167963   -0.1700
     27 H27        -7.4099   -0.3181   52.9520 H       1  ZINC000007167963    0.0800
     28 H28        -6.6518    0.4553   51.5395 H       1  ZINC000007167963    0.1000
     29 H29        -5.6371   -0.1978   52.8480 H       1  ZINC000007167963    0.1000
     30 H30        -0.1514    2.1779   51.4966 H       1  ZINC000007167963    0.0900
     31 H31         0.6374    1.0193   50.3996 H       1  ZINC000007167963    0.0800
     32 H32         1.1635    2.7195   50.4263 H       1  ZINC000007167963    0.0800
     33 H33         0.7053    0.3961   48.4641 H       1  ZINC000007167963    0.4400
     34 H34        -1.7261   -1.8273   46.6106 H       1  ZINC000007167963    0.4000
     35 H35        -0.1688   -1.5859   47.1930 H       1  ZINC000007167963    0.4100
     36 H36         1.2007   -0.2808   43.4087 H       1  ZINC000007167963    0.1500
     37 H37         3.3520    1.0228   43.7103 H       1  ZINC000007167963    0.1700
     38 H38        -5.7570    4.7034   54.1686 H       1  ZINC000007167963    0.1600
     39 H39        -7.8908    3.7922   55.3844 H       1  ZINC000007167963    0.2200
@<TRIPOS>BOND
     1     1     2    1
     2     1    27    1
     3     1    28    1
     4     1    29    1
     5     2    26    1
     6     2     3    2
     7     3     4    1
     8     3    24    1
     9     4    23    1
    10     4     5    2
    11     5     6    1
    12     6     7    2
    13     7     8    1
    14     7    23    1
    15     8     9    1
    16     9    10    1
    17     9    11    1
    18     9    12    1
    19    11    30    1
    20    11    31    1
    21    11    32    1
    22    12    13    2
    23    12    14   am
    24    14    15    1
    25    14    33    1
    26    15    22    1
    27    15    16    2
    28    16    17    1
    29    16    20    1
    30    17    18   am
    31    17    19    2
    32    18    34    1
    33    18    35    1
    34    20    21    2
    35    20    36    1
    36    21    22    1
    37    21    37    1
    38    24    25    2
    39    24    38    1
    40    25    26    1
    41    25    39    1
@<TRIPOS>SUBSTRUCTURE
     1 ZINC000007167963        1 TEMP              0 ****  ****    0 ROOT


##########                                Name:    ZINC001090961577
##########                DOCK_Rotatable_Bonds:                   9
##########                         Heavy_Atoms:                  24
##########                    Molecular_Weight:             352.458
##########                DOCK_Rotatable_Bonds:                   9
##########                       Formal_Charge:                0.02
##########                     HBond_Acceptors:                   8
##########                        HBond_Donors:                   1
##########                         Heavy_Atoms:                  24
##########                          Grid_Score:          -32.086906
##########                     Grid_vdw_energy:          -27.005386
##########                      Grid_es_energy:           -5.081519
##########           Internal_energy_repulsive:            9.060011

@<TRIPOS>MOLECULE
ZINC001090961577
 48 49 1 0 0
SMALL
USER_CHARGES


@<TRIPOS>ATOM
      1 C1        -15.0820   -4.3705   57.3970 C.3     1  ZINC001090961577   -0.1400
      2 C2        -16.1593   -4.2137   58.4721 C.3     1  ZINC001090961577   -0.0900
      3 S3        -15.7774   -2.7723   59.5051 S.3     1  ZINC001090961577   -0.2700
      4 C4        -17.1421   -2.7534   60.6999 C.3     1  ZINC001090961577   -0.0700
      5 C5        -17.0149   -1.5229   61.6001 C.3     1  ZINC001090961577   -0.1200
      6 C6        -15.6815   -1.5495   62.3018 C.2     1  ZINC001090961577    0.5400
      7 O7        -15.4520   -2.3995   63.1359 O.2     1  ZINC001090961577   -0.5300
      8 N8        -14.7440   -0.6286   62.0025 N.am    1  ZINC001090961577   -0.6200
      9 C9        -14.8888    0.4525   61.0166 C.3     1  ZINC001090961577    0.1100
     10 C10       -13.5790    1.2683   61.0355 C.3     1  ZINC001090961577   -0.1100
     11 H11       -12.9061    0.9357   60.2451 H       1  ZINC001090961577    0.0900
     12 C12       -13.8708    2.7642   60.9014 C.3     1  ZINC001090961577   -0.1400
     13 C13       -12.9874    0.9435   62.4326 C.3     1  ZINC001090961577    0.1500
     14 H14       -13.4369    1.5706   63.2026 H       1  ZINC001090961577    0.1200
     15 N15       -11.5291    1.0833   62.4308 N.pl3   1  ZINC001090961577   -0.6700
     16 C16       -10.7800    0.5083   63.4359 C.ar    1  ZINC001090961577    0.5900
     17 N17       -10.9268    0.9464   64.6795 N.ar    1  ZINC001090961577   -0.5700
     18 C18       -10.2289    0.4227   65.6694 C.ar    1  ZINC001090961577    0.2700
     19 C19        -9.3232   -0.6099   65.3903 C.ar    1  ZINC001090961577   -0.3000
     20 C20        -8.5227   -1.2249   66.4647 C.2     1  ZINC001090961577    0.5300
     21 O21        -8.8684   -2.2840   66.9496 O.2     1  ZINC001090961577   -0.5100
     22 O22        -7.4077   -0.6125   66.9090 O.3     1  ZINC001090961577   -0.3600
     23 C23        -6.9714    0.5685   66.1855 C.3     1  ZINC001090961577    0.0400
     24 C24        -9.1988   -1.0428   64.0630 C.ar    1  ZINC001090961577    0.2600
     25 N25        -9.9375   -0.4704   63.1315 N.ar    1  ZINC001090961577   -0.5700
     26 C26       -13.4059   -0.5346   62.6140 C.3     1  ZINC001090961577    0.0900
     27 H27       -15.3114   -5.2366   56.7763 H       1  ZINC001090961577    0.0700
     28 H28       -15.0554   -3.4752   56.7760 H       1  ZINC001090961577    0.0700
     29 H29       -14.1115   -4.5114   57.8730 H       1  ZINC001090961577    0.0700
     30 H30       -17.1297   -4.0728   57.9961 H       1  ZINC001090961577    0.0800
     31 H31       -16.1858   -5.1091   59.0931 H       1  ZINC001090961577    0.0800
     32 H32       -18.0918   -2.7165   60.1662 H       1  ZINC001090961577    0.0900
     33 H33       -17.1032   -3.6557   61.3103 H       1  ZINC001090961577    0.0900
     34 H34       -17.0885   -0.6200   60.9939 H       1  ZINC001090961577    0.1000
     35 H35       -17.8151   -1.5298   62.3402 H       1  ZINC001090961577    0.1000
     36 H36       -15.0485    0.0305   60.0245 H       1  ZINC001090961577    0.0800
     37 H37       -15.7281    1.0925   61.2890 H       1  ZINC001090961577    0.0800
     38 H38       -14.5201    3.0823   61.7170 H       1  ZINC001090961577    0.0600
     39 H39       -12.9353    3.3221   60.9429 H       1  ZINC001090961577    0.0600
     40 H40       -14.3650    2.9539   59.9485 H       1  ZINC001090961577    0.0700
     41 H41       -11.0904    1.5803   61.7226 H       1  ZINC001090961577    0.4200
     42 H42       -10.3534    0.7847   66.6793 H       1  ZINC001090961577    0.1800
     43 H43        -6.0651    0.9622   66.6457 H       1  ZINC001090961577    0.1100
     44 H44        -6.7668    0.3040   65.1481 H       1  ZINC001090961577    0.0700
     45 H45        -7.7548    1.3255   66.2197 H       1  ZINC001090961577    0.0700
     46 H46        -8.5118   -1.8359   63.8073 H       1  ZINC001090961577    0.1800
     47 H47       -13.4503   -0.7891   63.6729 H       1  ZINC001090961577    0.0900
     48 H48       -12.7097   -1.1925   62.0937 H       1  ZINC001090961577    0.0800
@<TRIPOS>BOND
     1     1     2    1
     2     1    27    1
     3     1    28    1
     4     1    29    1
     5     2     3    1
     6     2    30    1
     7     2    31    1
     8     3     4    1
     9     4     5    1
    10     4    32    1
    11     4    33    1
    12     5     6    1
    13     5    34    1
    14     5    35    1
    15     6     7    2
    16     6     8   am
    17     8    26    1
    18     8     9    1
    19     9    10    1
    20     9    36    1
    21     9    37    1
    22    10    11    1
    23    10    12    1
    24    10    13    1
    25    12    38    1
    26    12    39    1
    27    12    40    1
    28    13    14    1
    29    13    15    1
    30    13    26    1
    31    15    16    1
    32    15    41    1
    33    16    25   ar
    34    16    17   ar
    35    17    18   ar
    36    18    19   ar
    37    18    42    1
    38    19    20    1
    39    19    24   ar
    40    20    21    2
    41    20    22    1
    42    22    23    1
    43    23    43    1
    44    23    44    1
    45    23    45    1
    46    24    25   ar
    47    24    46    1
    48    26    47    1
    49    26    48    1
@<TRIPOS>SUBSTRUCTURE
     1 ZINC001090961577        1 TEMP              0 ****  ****    0 ROOT


##########                                Name:    ZINC000746432885
##########                DOCK_Rotatable_Bonds:                  11
##########                         Heavy_Atoms:                  31
##########                    Molecular_Weight:              419.44
##########                DOCK_Rotatable_Bonds:                  11
##########                       Formal_Charge:           0.0199995
##########                     HBond_Acceptors:                   9
##########                        HBond_Donors:                   2
##########                         Heavy_Atoms:                  31
##########                          Grid_Score:          -32.083015
##########                     Grid_vdw_energy:          -31.926638
##########                      Grid_es_energy:           -0.156379
##########           Internal_energy_repulsive:           14.140024

@<TRIPOS>MOLECULE
ZINC000746432885
 52 54 1 0 0
SMALL
USER_CHARGES


@<TRIPOS>ATOM
      1 C1        -10.6088    0.1256   51.8627 C.3     1  ZINC000746432885    0.0300
      2 O2        -10.2174   -0.6587   52.9914 O.3     1  ZINC000746432885   -0.3200
      3 C3        -10.2691   -0.0567   54.2088 C.ar    1  ZINC000746432885    0.1300
      4 C4         -9.6332    1.1598   54.4099 C.ar    1  ZINC000746432885   -0.2000
      5 C5         -9.6871    1.7696   55.6482 C.ar    1  ZINC000746432885   -0.0800
      6 C6        -10.3737    1.1684   56.6869 C.ar    1  ZINC000746432885   -0.1400
      7 C7        -11.0083   -0.0439   56.4890 C.ar    1  ZINC000746432885   -0.0600
      8 C8        -11.7562   -0.6963   57.6231 C.3     1  ZINC000746432885    0.2300
      9 N9        -12.4657   -1.8773   57.1248 N.am    1  ZINC000746432885   -0.6900
     10 C10       -13.7356   -1.7658   56.6873 C.2     1  ZINC000746432885    0.5200
     11 O11       -14.2910   -0.6867   56.7048 O.2     1  ZINC000746432885   -0.5100
     12 C12       -14.4594   -2.9698   56.1811 C.2     1  ZINC000746432885    0.5100
     13 O13       -15.6016   -2.8685   55.7825 O.2     1  ZINC000746432885   -0.5100
     14 N14       -13.8445   -4.1691   56.1667 N.am    1  ZINC000746432885   -0.6100
     15 C15       -14.5248   -5.3015   55.6890 C.2     1  ZINC000746432885    0.0000
     16 C16       -15.1147   -5.4270   54.4717 C.2     1  ZINC000746432885    0.0400
     17 N17       -15.6565   -6.6642   54.4043 N.pl3   1  ZINC000746432885   -0.3800
     18 C18       -16.3901   -7.2219   53.2656 C.3     1  ZINC000746432885    0.2500
     19 C19       -15.8992   -6.6117   52.0192 C.1     1  ZINC000746432885    0.1900
     20 N20       -15.5202   -6.1410   51.0573 N.1     1  ZINC000746432885   -0.3900
     21 N21       -15.3927   -7.3189   55.6141 N.2     1  ZINC000746432885   -0.2800
     22 C22       -14.7111   -6.5078   56.3816 C.2     1  ZINC000746432885    0.0700
     23 C23       -10.7814   -1.1111   58.6949 C.ar    1  ZINC000746432885   -0.0500
     24 C24       -10.1166   -2.3192   58.5940 C.ar    1  ZINC000746432885   -0.1500
     25 C25        -9.2213   -2.7023   59.5754 C.ar    1  ZINC000746432885   -0.0700
     26 C26        -8.9888   -1.8785   60.6597 C.ar    1  ZINC000746432885   -0.2000
     27 C27        -9.6545   -0.6658   60.7633 C.ar    1  ZINC000746432885    0.1300
     28 O28        -9.4275    0.1464   61.8290 O.3     1  ZINC000746432885   -0.3200
     29 C29       -10.5041    0.3212   62.7523 C.3     1  ZINC000746432885    0.0300
     30 C30       -10.5485   -0.2813   59.7745 C.ar    1  ZINC000746432885   -0.1300
     31 C31       -10.9625   -0.6548   55.2508 C.ar    1  ZINC000746432885   -0.1300
     32 H32        -9.9614    0.9991   51.7851 H       1  ZINC000746432885    0.0600
     33 H33       -10.5211   -0.4733   50.9562 H       1  ZINC000746432885    0.1000
     34 H34       -11.6424    0.4491   51.9859 H       1  ZINC000746432885    0.0600
     35 H35        -9.0961    1.6295   53.5991 H       1  ZINC000746432885    0.1300
     36 H36        -9.1923    2.7167   55.8053 H       1  ZINC000746432885    0.1300
     37 H37       -10.4142    1.6464   57.6545 H       1  ZINC000746432885    0.1200
     38 H38       -12.4744    0.0105   58.0389 H       1  ZINC000746432885    0.1200
     39 H39       -12.0215   -2.7395   57.1097 H       1  ZINC000746432885    0.4200
     40 H40       -12.9323   -4.2502   56.4863 H       1  ZINC000746432885    0.4200
     41 H41       -15.1457   -4.6744   53.6977 H       1  ZINC000746432885    0.1900
     42 H42       -16.2362   -8.3003   53.2272 H       1  ZINC000746432885    0.1300
     43 H43       -17.4533   -7.0105   53.3794 H       1  ZINC000746432885    0.1500
     44 H44       -14.3586   -6.7264   57.3787 H       1  ZINC000746432885    0.2100
     45 H45       -10.2973   -2.9649   57.7473 H       1  ZINC000746432885    0.1200
     46 H46        -8.7035   -3.6468   59.4945 H       1  ZINC000746432885    0.1300
     47 H47        -8.2896   -2.1785   61.4262 H       1  ZINC000746432885    0.1300
     48 H48       -10.1907    0.9909   63.5532 H       1  ZINC000746432885    0.1000
     49 H49       -11.3612    0.7508   62.2339 H       1  ZINC000746432885    0.0600
     50 H50       -10.7814   -0.6449   63.1741 H       1  ZINC000746432885    0.0600
     51 H51       -11.0680    0.6623   59.8528 H       1  ZINC000746432885    0.1400
     52 H52       -11.4583   -1.6019   55.0967 H       1  ZINC000746432885    0.1300
@<TRIPOS>BOND
     1     1     2    1
     2     1    32    1
     3     1    33    1
     4     1    34    1
     5     2     3    1
     6     3    31   ar
     7     3     4   ar
     8     4     5   ar
     9     4    35    1
    10     5     6   ar
    11     5    36    1
    12     6     7   ar
    13     6    37    1
    14     7     8    1
    15     7    31   ar
    16     8     9    1
    17     8    23    1
    18     8    38    1
    19     9    10   am
    20     9    39    1
    21    10    11    2
    22    10    12    1
    23    12    13    2
    24    12    14   am
    25    14    15    1
    26    14    40    1
    27    15    22    1
    28    15    16    2
    29    16    17    1
    30    16    41    1
    31    17    18    1
    32    17    21    1
    33    18    19    1
    34    18    42    1
    35    18    43    1
    36    19    20    3
    37    21    22    2
    38    22    44    1
    39    23    30   ar
    40    23    24   ar
    41    24    25   ar
    42    24    45    1
    43    25    26   ar
    44    25    46    1
    45    26    27   ar
    46    26    47    1
    47    27    28    1
    48    27    30   ar
    49    28    29    1
    50    29    48    1
    51    29    49    1
    52    29    50    1
    53    30    51    1
    54    31    52    1
@<TRIPOS>SUBSTRUCTURE
     1 ZINC000746432885        1 TEMP              0 ****  ****    0 ROOT


##########                                Name:    ZINC000629379364
##########                DOCK_Rotatable_Bonds:                   5
##########                         Heavy_Atoms:                  23
##########                    Molecular_Weight:             386.261
##########                DOCK_Rotatable_Bonds:                   5
##########                       Formal_Charge:               -0.02
##########                     HBond_Acceptors:                   5
##########                        HBond_Donors:                   1
##########                         Heavy_Atoms:                  23
##########                          Grid_Score:          -32.052185
##########                     Grid_vdw_energy:          -29.130983
##########                      Grid_es_energy:           -2.921201
##########           Internal_energy_repulsive:           21.055189

@<TRIPOS>MOLECULE
ZINC000629379364
 44 46 1 0 0
SMALL
USER_CHARGES


@<TRIPOS>ATOM
      1 O1        -13.2341   -3.3082   58.2283 O.co2   1  ZINC000629379364   -0.6800
      2 C2        -12.2928   -3.6386   57.5274 C.2     1  ZINC000629379364    0.5000
      3 O3        -12.4795   -4.3371   56.5456 O.co2   1  ZINC000629379364   -0.6900
      4 C4        -10.8995   -3.1786   57.8708 C.3     1  ZINC000629379364   -0.1600
      5 H5        -10.1751   -3.6664   57.2184 H       1  ZINC000629379364    0.0800
      6 C6        -10.5856   -3.5047   59.3415 C.3     1  ZINC000629379364   -0.1300
      7 C7         -9.2385   -2.9236   59.7601 C.3     1  ZINC000629379364   -0.0100
      8 N8         -9.1614   -1.4735   59.4977 N.4     1  ZINC000629379364   -0.3700
      9 H9         -8.2603   -1.1208   59.7835 H       1  ZINC000629379364    0.4200
     10 C10       -10.2258   -0.7761   60.2317 C.3     1  ZINC000629379364   -0.0200
     11 C11        -9.7766   -0.5344   61.6741 C.3     1  ZINC000629379364    0.0300
     12 O12       -10.5707    0.5031   62.2528 O.3     1  ZINC000629379364   -0.3200
     13 C13       -10.4244    0.7211   63.5862 C.ar    1  ZINC000629379364    0.1600
     14 C14       -11.1756    1.7021   64.2159 C.ar    1  ZINC000629379364   -0.2300
     15 C15       -11.0250    1.9223   65.5738 C.ar    1  ZINC000629379364    0.1500
     16 F16       -11.7563    2.8778   66.1883 F       1  ZINC000629379364   -0.1200
     17 C17       -10.1251    1.1635   66.3029 C.ar    1  ZINC000629379364   -0.1600
     18 C18        -9.3750    0.1850   65.6753 C.ar    1  ZINC000629379364   -0.0300
     19 Br19       -8.1470   -0.8497   66.6740 Br      1  ZINC000629379364   -0.0100
     20 C20        -9.5273   -0.0415   64.3203 C.ar    1  ZINC000629379364   -0.1300
     21 C21        -9.3369   -1.2795   58.0674 C.3     1  ZINC000629379364   -0.0100
     22 H22        -8.6413   -1.9129   57.5169 H       1  ZINC000629379364    0.1400
     23 C23        -9.2459    0.1638   57.5611 C.3     1  ZINC000629379364   -0.1300
     24 C24       -10.0198    0.1113   56.2158 C.3     1  ZINC000629379364   -0.1200
     25 C25       -10.9872   -1.0939   56.3153 C.3     1  ZINC000629379364   -0.1100
     26 C26       -10.7992   -1.6703   57.7213 C.3     1  ZINC000629379364   -0.0700
     27 H27       -11.4684   -1.1694   58.4209 H       1  ZINC000629379364    0.1000
     28 H28       -11.3677   -3.0861   59.9750 H       1  ZINC000629379364    0.0800
     29 H29       -10.5635   -4.5868   59.4707 H       1  ZINC000629379364    0.1100
     30 H30        -9.0914   -3.0998   60.8258 H       1  ZINC000629379364    0.1200
     31 H31        -8.4467   -3.4273   59.2058 H       1  ZINC000629379364    0.1300
     32 H32       -10.4327    0.1798   59.7505 H       1  ZINC000629379364    0.1400
     33 H33       -11.1286   -1.3869   60.2299 H       1  ZINC000629379364    0.1700
     34 H34        -9.8994   -1.4509   62.2513 H       1  ZINC000629379364    0.1100
     35 H35        -8.7279   -0.2372   61.6832 H       1  ZINC000629379364    0.0900
     36 H36       -11.8774    2.2938   63.6469 H       1  ZINC000629379364    0.1500
     37 H37       -10.0085    1.3358   67.3627 H       1  ZINC000629379364    0.1500
     38 H38        -8.9415   -0.8059   63.8313 H       1  ZINC000629379364    0.1500
     39 H39        -9.7301    0.8480   58.2578 H       1  ZINC000629379364    0.0800
     40 H40        -8.2070    0.4500   57.3971 H       1  ZINC000629379364    0.0900
     41 H41       -10.5839    1.0328   56.0726 H       1  ZINC000629379364    0.0800
     42 H42        -9.3242   -0.0346   55.3895 H       1  ZINC000629379364    0.0800
     43 H43       -12.0158   -0.7657   56.1654 H       1  ZINC000629379364    0.0900
     44 H44       -10.7214   -1.8529   55.5794 H       1  ZINC000629379364    0.0800
@<TRIPOS>BOND
     1     1     2   ar
     2     2     3   ar
     3     2     4    1
     4     4     5    1
     5     4    26    1
     6     4     6    1
     7     6     7    1
     8     6    28    1
     9     6    29    1
    10     7     8    1
    11     7    30    1
    12     7    31    1
    13     8     9    1
    14     8    10    1
    15     8    21    1
    16    10    11    1
    17    10    32    1
    18    10    33    1
    19    11    12    1
    20    11    34    1
    21    11    35    1
    22    12    13    1
    23    13    20   ar
    24    13    14   ar
    25    14    15   ar
    26    14    36    1
    27    15    16    1
    28    15    17   ar
    29    17    18   ar
    30    17    37    1
    31    18    19    1
    32    18    20   ar
    33    20    38    1
    34    21    22    1
    35    21    26    1
    36    21    23    1
    37    23    24    1
    38    23    39    1
    39    23    40    1
    40    24    25    1
    41    24    41    1
    42    24    42    1
    43    25    26    1
    44    25    43    1
    45    25    44    1
    46    26    27    1
@<TRIPOS>SUBSTRUCTURE
     1 ZINC000629379364        1 TEMP              0 ****  ****    0 ROOT


##########                                Name:    ZINC001461256440
##########                DOCK_Rotatable_Bonds:                  13
##########                         Heavy_Atoms:                  26
##########                    Molecular_Weight:             367.445
##########                DOCK_Rotatable_Bonds:                  13
##########                       Formal_Charge:        -6.37025e-07
##########                     HBond_Acceptors:                   8
##########                        HBond_Donors:                   1
##########                         Heavy_Atoms:                  26
##########                          Grid_Score:          -32.012589
##########                     Grid_vdw_energy:          -29.102932
##########                      Grid_es_energy:           -2.909658
##########           Internal_energy_repulsive:           14.533564

@<TRIPOS>MOLECULE
ZINC001461256440
 55 55 1 0 0
SMALL
USER_CHARGES


@<TRIPOS>ATOM
      1 C1        -16.0116   -2.4224   61.4209 C.3     1  ZINC001461256440   -0.1500
      2 C2        -15.5683   -1.9124   62.7937 C.3     1  ZINC001461256440    0.0600
      3 O3        -14.4211   -1.0362   62.6371 O.3     1  ZINC001461256440   -0.3600
      4 C4        -14.0068   -0.3738   63.7285 C.2     1  ZINC001461256440    0.4400
      5 O5        -14.8002   -0.0671   64.5864 O.2     1  ZINC001461256440   -0.4800
      6 C6        -12.5519   -0.0125   63.8836 C.3     1  ZINC001461256440    0.1400
      7 N7        -12.2618    1.1918   63.1014 N.pl3   1  ZINC001461256440   -0.3800
      8 N8        -13.0433    2.3532   63.0559 N.2     1  ZINC001461256440   -0.2800
      9 C9        -12.4647    3.2085   62.2522 C.2     1  ZINC001461256440    0.1000
     10 C10       -12.9719    4.5877   61.9183 C.3     1  ZINC001461256440   -0.0700
     11 C11       -11.2955    2.6245   61.7571 C.2     1  ZINC001461256440   -0.2700
     12 C12       -11.1887    1.3810   62.3000 C.2     1  ZINC001461256440    0.3100
     13 N13       -10.1633    0.4649   62.0659 N.am    1  ZINC001461256440   -0.6500
     14 C14       -10.3603   -0.5655   61.2198 C.2     1  ZINC001461256440    0.5200
     15 O15       -11.4289   -0.6954   60.6609 O.2     1  ZINC001461256440   -0.5000
     16 C16        -9.2530   -1.5562   60.9682 C.3     1  ZINC001461256440   -0.1300
     17 C17        -9.3004   -2.0144   59.5093 C.3     1  ZINC001461256440   -0.1100
     18 C18       -10.2605   -3.1984   59.3775 C.3     1  ZINC001461256440   -0.1100
     19 C19       -11.1228   -3.0189   58.1263 C.3     1  ZINC001461256440   -0.1200
     20 C20       -12.1330   -4.1344   58.0483 C.2     1  ZINC001461256440    0.4600
     21 O21       -11.7616   -5.2814   57.9692 O.2     1  ZINC001461256440   -0.5000
     22 O22       -13.4455   -3.8537   58.0668 O.3     1  ZINC001461256440   -0.3500
     23 C23       -14.1776   -4.0432   56.8272 C.3     1  ZINC001461256440    0.1200
     24 C24       -13.2802   -3.6761   55.6436 C.3     1  ZINC001461256440   -0.1800
     25 C25       -14.6069   -5.5068   56.7071 C.3     1  ZINC001461256440   -0.1400
     26 C26       -15.4172   -3.1463   56.8249 C.3     1  ZINC001461256440   -0.1800
     27 H27       -16.8727   -3.0803   61.5385 H       1  ZINC001461256440    0.0800
     28 H28       -16.2839   -1.5766   60.7897 H       1  ZINC001461256440    0.0700
     29 H29       -15.1939   -2.9738   60.9567 H       1  ZINC001461256440    0.0700
     30 H30       -16.3859   -1.3611   63.2578 H       1  ZINC001461256440    0.0700
     31 H31       -15.2959   -2.7583   63.4249 H       1  ZINC001461256440    0.0700
     32 H32       -12.3345    0.1759   64.9349 H       1  ZINC001461256440    0.1300
     33 H33       -11.9331   -0.8355   63.5264 H       1  ZINC001461256440    0.1400
     34 H34       -12.5656    5.3064   62.6299 H       1  ZINC001461256440    0.0800
     35 H35       -12.6565    4.8566   60.9102 H       1  ZINC001461256440    0.0800
     36 H36       -14.0605    4.5977   61.9732 H       1  ZINC001461256440    0.0700
     37 H37       -10.5989    3.0802   61.0690 H       1  ZINC001461256440    0.1800
     38 H38        -9.3083    0.5696   62.5120 H       1  ZINC001461256440    0.4100
     39 H39        -8.2910   -1.0850   61.1701 H       1  ZINC001461256440    0.1000
     40 H40        -9.3802   -2.4176   61.6240 H       1  ZINC001461256440    0.1000
     41 H41        -9.6473   -1.1936   58.8817 H       1  ZINC001461256440    0.0800
     42 H42        -8.3030   -2.3183   59.1914 H       1  ZINC001461256440    0.0800
     43 H43        -9.6885   -4.1226   59.2950 H       1  ZINC001461256440    0.0700
     44 H44       -10.9022   -3.2455   60.2572 H       1  ZINC001461256440    0.0700
     45 H45       -11.6416   -2.0617   58.1768 H       1  ZINC001461256440    0.1100
     46 H46       -10.4874   -3.0415   57.2409 H       1  ZINC001461256440    0.1100
     47 H47       -12.3972   -4.3151   55.6454 H       1  ZINC001461256440    0.0600
     48 H48       -13.8299   -3.8184   54.7131 H       1  ZINC001461256440    0.0700
     49 H49       -12.9744   -2.6334   55.7292 H       1  ZINC001461256440    0.0800
     50 H50       -15.2462   -5.7684   57.5503 H       1  ZINC001461256440    0.0700
     51 H51       -15.1565   -5.6490   55.7766 H       1  ZINC001461256440    0.0800
     52 H52       -13.7238   -6.1458   56.7088 H       1  ZINC001461256440    0.0700
     53 H53       -15.1113   -2.1036   56.9104 H       1  ZINC001461256440    0.0800
     54 H54       -15.9667   -3.2885   55.8944 H       1  ZINC001461256440    0.0700
     55 H55       -16.0564   -3.4078   57.6681 H       1  ZINC001461256440    0.0600
@<TRIPOS>BOND
     1     1     2    1
     2     1    27    1
     3     1    28    1
     4     1    29    1
     5     2     3    1
     6     2    30    1
     7     2    31    1
     8     3     4    1
     9     4     5    2
    10     4     6    1
    11     6     7    1
    12     6    32    1
    13     6    33    1
    14     7    12    1
    15     7     8    1
    16     8     9    2
    17     9    10    1
    18     9    11    1
    19    10    34    1
    20    10    35    1
    21    10    36    1
    22    11    12    2
    23    11    37    1
    24    12    13    1
    25    13    14   am
    26    13    38    1
    27    14    15    2
    28    14    16    1
    29    16    17    1
    30    16    39    1
    31    16    40    1
    32    17    18    1
    33    17    41    1
    34    17    42    1
    35    18    19    1
    36    18    43    1
    37    18    44    1
    38    19    20    1
    39    19    45    1
    40    19    46    1
    41    20    21    2
    42    20    22    1
    43    22    23    1
    44    23    24    1
    45    23    25    1
    46    23    26    1
    47    24    47    1
    48    24    48    1
    49    24    49    1
    50    25    50    1
    51    25    51    1
    52    25    52    1
    53    26    53    1
    54    26    54    1
    55    26    55    1
@<TRIPOS>SUBSTRUCTURE
     1 ZINC001461256440        1 TEMP              0 ****  ****    0 ROOT


##########                                Name:    ZINC000410354665
##########                DOCK_Rotatable_Bonds:                   7
##########                         Heavy_Atoms:                  29
##########                    Molecular_Weight:             417.889
##########                DOCK_Rotatable_Bonds:                   7
##########                       Formal_Charge:        -3.72529e-08
##########                     HBond_Acceptors:                   7
##########                        HBond_Donors:                   1
##########                         Heavy_Atoms:                  29
##########                          Grid_Score:          -31.990589
##########                     Grid_vdw_energy:          -32.481640
##########                      Grid_es_energy:            0.491051
##########           Internal_energy_repulsive:           58.066006

@<TRIPOS>MOLECULE
ZINC000410354665
 53 56 1 0 0
SMALL
USER_CHARGES


@<TRIPOS>ATOM
      1 C1        -15.0696   -6.9039   56.1222 C.3     1  ZINC000410354665    0.0200
      2 O2        -13.8915   -6.5502   56.8495 O.3     1  ZINC000410354665   -0.3000
      3 C3        -13.4283   -5.2809   56.6949 C.ar    1  ZINC000410354665    0.0900
      4 C4        -12.2834   -4.8786   57.3542 C.ar    1  ZINC000410354665   -0.1100
      5 C5        -11.8099   -3.5735   57.1927 C.ar    1  ZINC000410354665   -0.1400
      6 C6        -10.5864   -3.1385   57.8947 C.2     1  ZINC000410354665    0.5700
      7 O7         -9.8589   -3.9619   58.4153 O.2     1  ZINC000410354665   -0.5300
      8 N8        -10.2758   -1.8286   57.9585 N.am    1  ZINC000410354665   -0.7200
      9 C9         -9.0605   -1.3971   58.6537 C.3     1  ZINC000410354665    0.1700
     10 C10        -9.4309   -0.7871   59.9811 C.ar    1  ZINC000410354665   -0.1000
     11 C11       -10.0858    0.4293   60.0225 C.ar    1  ZINC000410354665   -0.0900
     12 C12       -10.4253    0.9933   61.2391 C.ar    1  ZINC000410354665   -0.0300
     13 Cl13      -11.2475    2.5215   61.2875 Cl      1  ZINC000410354665   -0.0400
     14 C14       -10.1096    0.3381   62.4209 C.ar    1  ZINC000410354665    0.0700
     15 O15       -10.4430    0.9088   63.6111 O.3     1  ZINC000410354665   -0.2900
     16 C16       -10.4436    0.0516   64.7579 C.3     1  ZINC000410354665    0.0200
     17 C17        -9.1562   -0.7833   64.7348 C.3     1  ZINC000410354665    0.0200
     18 O18        -9.1400   -1.5487   63.5250 O.3     1  ZINC000410354665   -0.3000
     19 C19        -9.4546   -0.8867   62.3781 C.ar    1  ZINC000410354665    0.0600
     20 C20        -9.1201   -1.4479   61.1547 C.ar    1  ZINC000410354665   -0.0900
     21 C21       -12.4966   -2.6820   56.3655 C.ar    1  ZINC000410354665   -0.0800
     22 C22       -13.6389   -3.0897   55.7108 C.ar    1  ZINC000410354665   -0.1900
     23 C23       -14.1062   -4.3873   55.8664 C.ar    1  ZINC000410354665    0.1400
     24 O24       -15.2320   -4.7842   55.2192 O.3     1  ZINC000410354665   -0.2900
     25 C25       -16.0098   -3.7659   54.5867 C.3     1  ZINC000410354665    0.0700
     26 C26       -17.1401   -4.3969   53.7362 C.3     1  ZINC000410354665   -0.1500
     27 C27       -18.1830   -3.2547   53.6525 C.3     1  ZINC000410354665   -0.1200
     28 C28       -18.1375   -2.5977   55.0475 C.3     1  ZINC000410354665   -0.1200
     29 C29       -16.7556   -2.9228   55.6415 C.3     1  ZINC000410354665   -0.1200
     30 H30       -15.8911   -6.2538   56.4229 H       1  ZINC000410354665    0.0600
     31 H31       -14.8861   -6.7872   55.0542 H       1  ZINC000410354665    0.0600
     32 H32       -15.3303   -7.9407   56.3350 H       1  ZINC000410354665    0.1000
     33 H33       -11.7554   -5.5708   57.9933 H       1  ZINC000410354665    0.1500
     34 H34       -10.8568   -1.1716   57.5443 H       1  ZINC000410354665    0.4000
     35 H35        -8.4109   -2.2569   58.8175 H       1  ZINC000410354665    0.0800
     36 H36        -8.5381   -0.6574   58.0471 H       1  ZINC000410354665    0.0900
     37 H37       -10.3325    0.9404   59.1037 H       1  ZINC000410354665    0.1500
     38 H38       -10.4755    0.6532   65.6663 H       1  ZINC000410354665    0.1300
     39 H39       -11.3104   -0.6083   64.7230 H       1  ZINC000410354665    0.0800
     40 H40        -8.2894   -0.1231   64.7637 H       1  ZINC000410354665    0.0800
     41 H41        -9.1374   -1.4535   65.5941 H       1  ZINC000410354665    0.1300
     42 H42        -8.6128   -2.4007   61.1190 H       1  ZINC000410354665    0.1400
     43 H43       -12.1326   -1.6731   56.2392 H       1  ZINC000410354665    0.1300
     44 H44       -14.1691   -2.3991   55.0717 H       1  ZINC000410354665    0.1400
     45 H45       -15.3749   -3.1302   53.9696 H       1  ZINC000410354665    0.0800
     46 H46       -16.7753   -4.6605   52.7434 H       1  ZINC000410354665    0.0700
     47 H47       -17.5608   -5.2681   54.2382 H       1  ZINC000410354665    0.0800
     48 H48       -17.9009   -2.5362   52.8829 H       1  ZINC000410354665    0.0700
     49 H49       -19.1757   -3.6585   53.4532 H       1  ZINC000410354665    0.0700
     50 H50       -18.2602   -1.5185   54.9561 H       1  ZINC000410354665    0.0700
     51 H51       -18.9226   -3.0110   55.6807 H       1  ZINC000410354665    0.0700
     52 H52       -16.8703   -3.4937   56.5629 H       1  ZINC000410354665    0.0800
     53 H53       -16.2078   -2.0013   55.8385 H       1  ZINC000410354665    0.0700
@<TRIPOS>BOND
     1     1     2    1
     2     1    30    1
     3     1    31    1
     4     1    32    1
     5     2     3    1
     6     3    23   ar
     7     3     4   ar
     8     4     5   ar
     9     4    33    1
    10     5     6    1
    11     5    21   ar
    12     6     7    2
    13     6     8   am
    14     8     9    1
    15     8    34    1
    16     9    10    1
    17     9    35    1
    18     9    36    1
    19    10    20   ar
    20    10    11   ar
    21    11    12   ar
    22    11    37    1
    23    12    13    1
    24    12    14   ar
    25    14    19   ar
    26    14    15    1
    27    15    16    1
    28    16    17    1
    29    16    38    1
    30    16    39    1
    31    17    18    1
    32    17    40    1
    33    17    41    1
    34    18    19    1
    35    19    20   ar
    36    20    42    1
    37    21    22   ar
    38    21    43    1
    39    22    23   ar
    40    22    44    1
    41    23    24    1
    42    24    25    1
    43    25    29    1
    44    25    26    1
    45    25    45    1
    46    26    27    1
    47    26    46    1
    48    26    47    1
    49    27    28    1
    50    27    48    1
    51    27    49    1
    52    28    29    1
    53    28    50    1
    54    28    51    1
    55    29    52    1
    56    29    53    1
@<TRIPOS>SUBSTRUCTURE
     1 ZINC000410354665        1 TEMP              0 ****  ****    0 ROOT


##########                                Name:    ZINC001078748831
##########                DOCK_Rotatable_Bonds:                   6
##########                         Heavy_Atoms:                  23
##########                    Molecular_Weight:             333.417
##########                DOCK_Rotatable_Bonds:                   6
##########                       Formal_Charge:           0.0299999
##########                     HBond_Acceptors:                   9
##########                        HBond_Donors:                   2
##########                         Heavy_Atoms:                  23
##########                          Grid_Score:          -31.978048
##########                     Grid_vdw_energy:          -28.800400
##########                      Grid_es_energy:           -3.177649
##########           Internal_energy_repulsive:            7.178237

@<TRIPOS>MOLECULE
ZINC001078748831
 42 45 1 0 0
SMALL
USER_CHARGES


@<TRIPOS>ATOM
      1 C1          5.3572    1.4817   54.2476 C.3     1  ZINC001078748831    0.1000
      2 N2          4.3519    1.1876   53.2233 N.pl3   1  ZINC001078748831   -0.1400
      3 N3          4.3568    0.1395   52.4797 N.2     1  ZINC001078748831   -0.2900
      4 C4          3.3234    0.1816   51.6735 C.2     1  ZINC001078748831    0.0400
      5 C5          2.6468    1.3791   51.9801 C.2     1  ZINC001078748831   -0.0500
      6 C6          1.4132    1.8957   51.3508 C.2     1  ZINC001078748831    0.6200
      7 O7          0.8185    2.8284   51.8549 O.2     1  ZINC001078748831   -0.5200
      8 N8          0.9478    1.3326   50.2183 N.am    1  ZINC001078748831   -0.7000
      9 C9         -0.2760    1.8436   49.5955 C.3     1  ZINC001078748831    0.1500
     10 H10        -0.8013    2.5644   50.2220 H       1  ZINC001078748831    0.1100
     11 C11        -1.1866    0.7405   49.0263 C.3     1  ZINC001078748831   -0.1800
     12 C12        -0.4111    0.8840   47.7041 C.3     1  ZINC001078748831    0.0800
     13 H13         0.4613    0.2342   47.6358 H       1  ZINC001078748831    0.1000
     14 N14        -1.2647    0.8216   46.5102 N.3     1  ZINC001078748831   -0.6700
     15 C15        -0.6767   -0.0540   45.4878 C.3     1  ZINC001078748831    0.1400
     16 C16         0.2668    0.7440   44.6251 C.2     1  ZINC001078748831    0.0600
     17 N17         1.4194    0.3009   44.2056 N.2     1  ZINC001078748831   -0.5700
     18 S18         2.0918    1.4152   43.3455 S.3     1  ZINC001078748831    0.6800
     19 N19         0.9791    2.5031   43.4547 N.2     1  ZINC001078748831   -0.5700
     20 C20         0.0077    2.0265   44.1830 C.2     1  ZINC001078748831    0.0500
     21 C21        -0.0812    2.3113   48.1528 C.3     1  ZINC001078748831   -0.1000
     22 C22        -0.8493    3.5118   47.5988 C.3     1  ZINC001078748831   -0.1000
     23 C23         0.4375    4.3273   47.8203 C.3     1  ZINC001078748831   -0.1400
     24 C24         1.2103    3.0003   47.7110 C.3     1  ZINC001078748831   -0.1200
     25 N25         3.3458    1.9418   52.9541 N.2     1  ZINC001078748831   -0.2500
     26 H26         5.0432    1.0519   55.1988 H       1  ZINC001078748831    0.1000
     27 H27         6.3138    1.0505   53.9523 H       1  ZINC001078748831    0.1100
     28 H28         5.4627    2.5613   54.3539 H       1  ZINC001078748831    0.1100
     29 H29         3.0482   -0.5500   50.9282 H       1  ZINC001078748831    0.2100
     30 H30         1.4229    0.5892   49.8154 H       1  ZINC001078748831    0.4100
     31 H31        -1.0516   -0.2280   49.5080 H       1  ZINC001078748831    0.0700
     32 H32        -2.2335    1.0346   48.9519 H       1  ZINC001078748831    0.1000
     33 H33        -2.1985    0.5228   46.7486 H       1  ZINC001078748831    0.3500
     34 H34        -0.1299   -0.8626   45.9727 H       1  ZINC001078748831    0.1000
     35 H35        -1.4698   -0.4724   44.8679 H       1  ZINC001078748831    0.0600
     36 H36        -0.8930    2.5742   44.4183 H       1  ZINC001078748831    0.2000
     37 H37        -1.1262    3.4077   46.5497 H       1  ZINC001078748831    0.1000
     38 H38        -1.6811    3.8274   48.2285 H       1  ZINC001078748831    0.0700
     39 H39         0.6551    5.0264   47.0128 H       1  ZINC001078748831    0.0700
     40 H40         0.4980    4.7871   48.8067 H       1  ZINC001078748831    0.0800
     41 H41         2.0239    2.9074   48.4305 H       1  ZINC001078748831    0.0700
     42 H42         1.5125    2.7525   46.6935 H       1  ZINC001078748831    0.0900
@<TRIPOS>BOND
     1     1     2    1
     2     1    26    1
     3     1    27    1
     4     1    28    1
     5     2    25    1
     6     2     3    1
     7     3     4    2
     8     4     5    1
     9     4    29    1
    10     5     6    1
    11     5    25    2
    12     6     7    2
    13     6     8   am
    14     8     9    1
    15     8    30    1
    16     9    10    1
    17     9    21    1
    18     9    11    1
    19    11    12    1
    20    11    31    1
    21    11    32    1
    22    12    13    1
    23    12    14    1
    24    12    21    1
    25    14    15    1
    26    14    33    1
    27    15    16    1
    28    15    34    1
    29    15    35    1
    30    16    20    1
    31    16    17    2
    32    17    18    1
    33    18    19    1
    34    19    20    2
    35    20    36    1
    36    21    24    1
    37    21    22    1
    38    22    23    1
    39    22    37    1
    40    22    38    1
    41    23    24    1
    42    23    39    1
    43    23    40    1
    44    24    41    1
    45    24    42    1
@<TRIPOS>SUBSTRUCTURE
     1 ZINC001078748831        1 TEMP              0 ****  ****    0 ROOT


##########                                Name:    ZINC000442010511
##########                DOCK_Rotatable_Bonds:                  11
##########                         Heavy_Atoms:                  31
##########                    Molecular_Weight:             422.481
##########                DOCK_Rotatable_Bonds:                  11
##########                       Formal_Charge:          -0.0200005
##########                     HBond_Acceptors:                   7
##########                        HBond_Donors:                   2
##########                         Heavy_Atoms:                  31
##########                          Grid_Score:          -31.962463
##########                     Grid_vdw_energy:          -31.142015
##########                      Grid_es_energy:           -0.820448
##########           Internal_energy_repulsive:           11.346128

@<TRIPOS>MOLECULE
ZINC000442010511
 57 59 1 0 0
SMALL
USER_CHARGES


@<TRIPOS>ATOM
      1 C1         -6.8103   -0.4008   51.4074 C.3     1  ZINC000442010511   -0.1500
      2 C2         -5.9892    0.3651   52.4465 C.3     1  ZINC000442010511   -0.0500
      3 C3         -6.9052    1.2330   53.2704 C.2     1  ZINC000442010511    0.0000
      4 C4         -6.5851    2.4214   53.8131 C.2     1  ZINC000442010511   -0.2100
      5 C5         -7.7338    2.8821   54.4968 C.2     1  ZINC000442010511   -0.1900
      6 C6         -8.6870    1.9477   54.3308 C.2     1  ZINC000442010511   -0.0300
      7 C7        -10.0871    2.0091   54.8846 C.3     1  ZINC000442010511    0.2400
      8 H8        -10.0610    2.4205   55.8937 H       1  ZINC000442010511    0.1400
      9 C9        -10.9502    2.9027   53.9917 C.3     1  ZINC000442010511    0.0500
     10 O10       -11.2603    2.2092   52.7813 O.3     1  ZINC000442010511   -0.3800
     11 C11       -12.0537    2.9659   51.8647 C.3     1  ZINC000442010511    0.0300
     12 N12       -10.6571    0.6600   54.9220 N.am    1  ZINC000442010511   -0.6900
     13 C13       -11.2514    0.2103   56.0450 C.2     1  ZINC000442010511    0.5200
     14 O14       -11.3132    0.9225   57.0257 O.2     1  ZINC000442010511   -0.5100
     15 C15       -11.8340   -1.1642   56.0825 C.2     1  ZINC000442010511    0.5100
     16 O16       -11.7275   -1.8950   55.1191 O.2     1  ZINC000442010511   -0.5000
     17 N17       -12.4780   -1.5932   57.1859 N.am    1  ZINC000442010511   -0.6300
     18 C18       -13.0236   -2.8805   57.2211 C.ar    1  ZINC000442010511    0.1200
     19 C19       -14.3349   -3.0916   56.8195 C.ar    1  ZINC000442010511   -0.1000
     20 C20       -14.8717   -4.3647   56.8553 C.ar    1  ZINC000442010511   -0.1300
     21 C21       -14.1054   -5.4302   57.2904 C.ar    1  ZINC000442010511   -0.0900
     22 C22       -12.7980   -5.2282   57.6927 C.ar    1  ZINC000442010511   -0.1700
     23 C23       -12.2497   -3.9564   57.6543 C.ar    1  ZINC000442010511    0.1000
     24 O24       -10.9646   -3.7561   58.0495 O.3     1  ZINC000442010511   -0.2600
     25 C25       -10.7517   -3.0842   59.2111 C.ar    1  ZINC000442010511    0.0800
     26 C26       -11.7934   -2.9017   60.1094 C.ar    1  ZINC000442010511   -0.1300
     27 C27       -11.5742   -2.2185   61.2898 C.ar    1  ZINC000442010511   -0.1100
     28 C28       -10.3181   -1.7163   61.5763 C.ar    1  ZINC000442010511   -0.0800
     29 C29       -10.0820   -0.9710   62.8647 C.3     1  ZINC000442010511   -0.1200
     30 C30        -9.2782   -1.8972   60.6832 C.ar    1  ZINC000442010511   -0.1100
     31 C31        -9.4908   -2.5841   59.5037 C.ar    1  ZINC000442010511   -0.1100
     32 O32        -8.1812    0.9538   53.5823 O.3     1  ZINC000442010511   -0.1600
     33 H33        -7.5450   -1.0264   51.9141 H       1  ZINC000442010511    0.0600
     34 H34        -7.3232    0.3069   50.7561 H       1  ZINC000442010511    0.0600
     35 H35        -6.1478   -1.0286   50.8115 H       1  ZINC000442010511    0.0700
     36 H36        -5.4762   -0.3426   53.0978 H       1  ZINC000442010511    0.0900
     37 H37        -5.2544    0.9907   51.9398 H       1  ZINC000442010511    0.0800
     38 H38        -5.6332    2.9265   53.7411 H       1  ZINC000442010511    0.1500
     39 H39        -7.8277    3.8067   55.0470 H       1  ZINC000442010511    0.1500
     40 H40       -11.8736    3.1541   54.5132 H       1  ZINC000442010511    0.0700
     41 H41       -10.4049    3.8169   53.7570 H       1  ZINC000442010511    0.0700
     42 H42       -12.2455    2.3701   50.9724 H       1  ZINC000442010511    0.0900
     43 H43       -13.0004    3.2300   52.3358 H       1  ZINC000442010511    0.0400
     44 H44       -11.5200    3.8748   51.5869 H       1  ZINC000442010511    0.0400
     45 H45       -10.6066    0.0903   54.1385 H       1  ZINC000442010511    0.4200
     46 H46       -12.5631   -1.0092   57.9557 H       1  ZINC000442010511    0.4300
     47 H47       -14.9361   -2.2613   56.4794 H       1  ZINC000442010511    0.1600
     48 H48       -15.8926   -4.5277   56.5428 H       1  ZINC000442010511    0.1300
     49 H49       -14.5294   -6.4231   57.3166 H       1  ZINC000442010511    0.1300
     50 H50       -12.2028   -6.0626   58.0327 H       1  ZINC000442010511    0.1300
     51 H51       -12.7748   -3.2931   59.8858 H       1  ZINC000442010511    0.1300
     52 H52       -12.3846   -2.0762   61.9894 H       1  ZINC000442010511    0.1300
     53 H53        -9.7783   -1.6737   63.6406 H       1  ZINC000442010511    0.0700
     54 H54        -9.2958   -0.2305   62.7173 H       1  ZINC000442010511    0.0700
     55 H55       -11.0010   -0.4696   63.1681 H       1  ZINC000442010511    0.0700
     56 H56        -8.2982   -1.5038   60.9093 H       1  ZINC000442010511    0.1300
     57 H57        -8.6782   -2.7253   58.8064 H       1  ZINC000442010511    0.1300
@<TRIPOS>BOND
     1     1     2    1
     2     1    33    1
     3     1    34    1
     4     1    35    1
     5     2     3    1
     6     2    36    1
     7     2    37    1
     8     3    32    1
     9     3     4    2
    10     4     5    1
    11     4    38    1
    12     5     6    2
    13     5    39    1
    14     6     7    1
    15     6    32    1
    16     7     8    1
    17     7     9    1
    18     7    12    1
    19     9    10    1
    20     9    40    1
    21     9    41    1
    22    10    11    1
    23    11    42    1
    24    11    43    1
    25    11    44    1
    26    12    13   am
    27    12    45    1
    28    13    14    2
    29    13    15    1
    30    15    16    2
    31    15    17   am
    32    17    18    1
    33    17    46    1
    34    18    23   ar
    35    18    19   ar
    36    19    20   ar
    37    19    47    1
    38    20    21   ar
    39    20    48    1
    40    21    22   ar
    41    21    49    1
    42    22    23   ar
    43    22    50    1
    44    23    24    1
    45    24    25    1
    46    25    31   ar
    47    25    26   ar
    48    26    27   ar
    49    26    51    1
    50    27    28   ar
    51    27    52    1
    52    28    29    1
    53    28    30   ar
    54    29    53    1
    55    29    54    1
    56    29    55    1
    57    30    31   ar
    58    30    56    1
    59    31    57    1
@<TRIPOS>SUBSTRUCTURE
     1 ZINC000442010511        1 TEMP              0 ****  ****    0 ROOT


##########                                Name:    ZINC000432253027
##########                DOCK_Rotatable_Bonds:                   8
##########                         Heavy_Atoms:                  26
##########                    Molecular_Weight:             401.436
##########                DOCK_Rotatable_Bonds:                   8
##########                       Formal_Charge:         1.19209e-07
##########                     HBond_Acceptors:                  11
##########                        HBond_Donors:                   0
##########                         Heavy_Atoms:                  26
##########                          Grid_Score:          -31.923088
##########                     Grid_vdw_energy:          -27.377218
##########                      Grid_es_energy:           -4.545870
##########           Internal_energy_repulsive:            8.515311

@<TRIPOS>MOLECULE
ZINC000432253027
 40 42 1 0 0
SMALL
USER_CHARGES


@<TRIPOS>ATOM
      1 C1        -11.1220    0.4094   53.8026 C.3     1  ZINC000432253027    0.0300
      2 O2         -9.9054    0.0167   54.4414 O.3     1  ZINC000432253027   -0.3100
      3 C3         -9.1515    1.0035   54.9914 C.ar    1  ZINC000432253027    0.1500
      4 C4         -8.4850    1.9048   54.1775 C.ar    1  ZINC000432253027   -0.2100
      5 C5         -7.7175    2.9085   54.7383 C.ar    1  ZINC000432253027   -0.0600
      6 C6         -7.6095    3.0207   56.1133 C.ar    1  ZINC000432253027   -0.1600
      7 C7         -8.2673    2.1308   56.9375 C.ar    1  ZINC000432253027   -0.0300
      8 C8         -9.0494    1.1174   56.3835 C.ar    1  ZINC000432253027   -0.0600
      9 C9         -9.7563    0.1610   57.2607 C.2     1  ZINC000432253027    0.1200
     10 N10        -9.1899   -0.7632   57.9829 N.2     1  ZINC000432253027   -0.4600
     11 C11        -9.9805   -1.5244   58.7050 C.2     1  ZINC000432253027    0.0800
     12 C12        -9.4469   -2.6275   59.5821 C.3     1  ZINC000432253027   -0.0200
     13 S13       -10.2595   -2.5583   61.2024 S.3     1  ZINC000432253027   -0.1700
     14 C14        -9.5257   -1.0846   61.9644 C.3     1  ZINC000432253027   -0.0300
     15 C15       -10.4455   -0.5637   63.0385 C.2     1  ZINC000432253027    0.2100
     16 N16       -11.7530   -0.4922   62.9822 N.2     1  ZINC000432253027   -0.2700
     17 N17       -12.1724    0.0074   64.0932 N.2     1  ZINC000432253027   -0.0500
     18 N18       -11.1664    0.2565   64.8569 N.2     1  ZINC000432253027   -0.0700
     19 N19       -10.0841   -0.0870   64.2442 N.pl3   1  ZINC000432253027   -0.3100
     20 C20        -8.7180    0.0291   64.7602 C.3     1  ZINC000432253027    0.0700
     21 C21        -8.7295   -0.1519   66.2794 C.3     1  ZINC000432253027    0.4300
     22 F22        -9.4966    0.8615   66.8639 F       1  ZINC000432253027   -0.1500
     23 F23        -9.2825   -1.3972   66.5966 F       1  ZINC000432253027   -0.1700
     24 F24        -7.4198   -0.0854   66.7669 F       1  ZINC000432253027   -0.1700
     25 C25       -11.2874   -1.2595   58.6138 C.2     1  ZINC000432253027   -0.2500
     26 S26       -11.4999    0.0927   57.5035 S.3     1  ZINC000432253027    0.1600
     27 H27       -11.6258   -0.4726   53.4073 H       1  ZINC000432253027    0.1000
     28 H28       -11.7695    0.9037   54.5268 H       1  ZINC000432253027    0.0600
     29 H29       -10.8985    1.0965   52.9865 H       1  ZINC000432253027    0.0600
     30 H30        -8.5649    1.8230   53.1037 H       1  ZINC000432253027    0.1400
     31 H31        -7.1990    3.6085   54.0999 H       1  ZINC000432253027    0.1300
     32 H32        -7.0078    3.8079   56.5431 H       1  ZINC000432253027    0.1300
     33 H33        -8.1802    2.2215   58.0102 H       1  ZINC000432253027    0.1400
     34 H34        -9.6479   -3.5920   59.1157 H       1  ZINC000432253027    0.1000
     35 H35        -8.3716   -2.5026   59.7093 H       1  ZINC000432253027    0.1100
     36 H36        -8.5632   -1.3444   62.4049 H       1  ZINC000432253027    0.1100
     37 H37        -9.3822   -0.3162   61.2048 H       1  ZINC000432253027    0.1300
     38 H38        -8.0920   -0.7399   64.3074 H       1  ZINC000432253027    0.1500
     39 H39        -8.3192    1.0134   64.5145 H       1  ZINC000432253027    0.1600
     40 H40       -12.0769   -1.7817   59.1338 H       1  ZINC000432253027    0.1800
@<TRIPOS>BOND
     1     1     2    1
     2     1    27    1
     3     1    28    1
     4     1    29    1
     5     2     3    1
     6     3     8   ar
     7     3     4   ar
     8     4     5   ar
     9     4    30    1
    10     5     6   ar
    11     5    31    1
    12     6     7   ar
    13     6    32    1
    14     7     8   ar
    15     7    33    1
    16     8     9    1
    17     9    26    1
    18     9    10    2
    19    10    11    1
    20    11    12    1
    21    11    25    2
    22    12    13    1
    23    12    34    1
    24    12    35    1
    25    13    14    1
    26    14    15    1
    27    14    36    1
    28    14    37    1
    29    15    19    1
    30    15    16    2
    31    16    17    1
    32    17    18    2
    33    18    19    1
    34    19    20    1
    35    20    21    1
    36    20    38    1
    37    20    39    1
    38    21    22    1
    39    21    23    1
    40    21    24    1
    41    25    26    1
    42    25    40    1
@<TRIPOS>SUBSTRUCTURE
     1 ZINC000432253027        1 TEMP              0 ****  ****    0 ROOT


##########                                Name:    ZINC000744839011
##########                DOCK_Rotatable_Bonds:                  10
##########                         Heavy_Atoms:                  24
##########                    Molecular_Weight:              378.83
##########                DOCK_Rotatable_Bonds:                  10
##########                       Formal_Charge:           0.0300002
##########                     HBond_Acceptors:                   9
##########                        HBond_Donors:                   0
##########                         Heavy_Atoms:                  24
##########                          Grid_Score:          -31.915657
##########                     Grid_vdw_energy:          -30.569317
##########                      Grid_es_energy:           -1.346339
##########           Internal_energy_repulsive:           11.995317

@<TRIPOS>MOLECULE
ZINC000744839011
 43 43 1 0 0
SMALL
USER_CHARGES


@<TRIPOS>ATOM
      1 C1        -14.9220   -5.3344   54.8530 C.3     1  ZINC000744839011    0.0400
      2 O2        -13.8378   -4.9900   55.7553 O.3     1  ZINC000744839011   -0.3600
      3 C3        -13.6901   -3.6869   56.0650 C.2     1  ZINC000744839011    0.5100
      4 O4        -14.4211   -2.8565   55.5626 O.2     1  ZINC000744839011   -0.5000
      5 C5        -12.6412   -3.2688   57.0135 C.ar    1  ZINC000744839011   -0.1600
      6 C6        -12.1861   -4.1575   57.9914 C.ar    1  ZINC000744839011   -0.0100
      7 C7        -11.2061   -3.7636   58.8752 C.ar    1  ZINC000744839011   -0.2100
      8 C8        -10.6693   -2.4844   58.7961 C.ar    1  ZINC000744839011    0.1800
      9 O9         -9.7037   -2.1004   59.6692 O.3     1  ZINC000744839011   -0.2900
     10 C10       -10.0880   -1.9522   61.0376 C.3     1  ZINC000744839011    0.0500
     11 C11        -8.9732   -1.2398   61.8061 C.3     1  ZINC000744839011    0.0600
     12 O12        -9.3605   -1.0957   63.1980 O.3     1  ZINC000744839011   -0.3400
     13 C13        -9.9917    0.0383   63.5407 C.2     1  ZINC000744839011    0.5000
     14 O14       -10.1913    0.8931   62.7105 O.2     1  ZINC000744839011   -0.4900
     15 C15       -10.4514    0.2451   64.9608 C.3     1  ZINC000744839011   -0.6400
     16 S16        -9.1749   -0.3524   66.1028 S.o2    1  ZINC000744839011    2.4400
     17 O17        -9.5605   -0.0169   67.4286 O.2     1  ZINC000744839011   -0.9100
     18 O18        -8.8827   -1.7066   65.7868 O.2     1  ZINC000744839011   -0.9100
     19 C19        -7.7495    0.6695   65.6394 C.3     1  ZINC000744839011   -0.5700
     20 C20        -8.0756    2.1433   65.8900 C.3     1  ZINC000744839011   -0.1500
     21 C21        -6.5372    0.2653   66.4807 C.3     1  ZINC000744839011   -0.1500
     22 C22       -11.1188   -1.5963   57.8240 C.ar    1  ZINC000744839011   -0.0800
     23 Cl23      -10.4438    0.0005   57.7298 Cl      1  ZINC000744839011   -0.0400
     24 C24       -12.0952   -1.9841   56.9332 C.ar    1  ZINC000744839011   -0.0100
     25 H25       -15.8715   -5.0283   55.2924 H       1  ZINC000744839011    0.0700
     26 H26       -14.7799   -4.8216   53.9017 H       1  ZINC000744839011    0.0700
     27 H27       -14.9288   -6.4117   54.6876 H       1  ZINC000744839011    0.1100
     28 H28       -12.6028   -5.1519   58.0542 H       1  ZINC000744839011    0.1500
     29 H29       -10.8544   -4.4499   59.6313 H       1  ZINC000744839011    0.1500
     30 H30       -11.0034   -1.3633   61.0961 H       1  ZINC000744839011    0.0900
     31 H31       -10.2600   -2.9355   61.4752 H       1  ZINC000744839011    0.1000
     32 H32        -8.0564   -1.8261   61.7428 H       1  ZINC000744839011    0.1100
     33 H33        -8.8049   -0.2543   61.3718 H       1  ZINC000744839011    0.0900
     34 H34       -10.6268    1.3067   65.1351 H       1  ZINC000744839011    0.1700
     35 H35       -11.3758   -0.3079   65.1277 H       1  ZINC000744839011    0.1700
     36 H36        -7.5244    0.5217   64.5831 H       1  ZINC000744839011    0.1400
     37 H37        -7.2192    2.7573   65.6115 H       1  ZINC000744839011    0.0900
     38 H38        -8.9394    2.4313   65.2906 H       1  ZINC000744839011    0.0700
     39 H39        -8.3007    2.2911   66.9462 H       1  ZINC000744839011    0.0800
     40 H40        -6.3049   -0.7846   66.3022 H       1  ZINC000744839011    0.0800
     41 H41        -5.6807    0.8794   66.2023 H       1  ZINC000744839011    0.0900
     42 H42        -6.7622    0.4132   67.5368 H       1  ZINC000744839011    0.0800
     43 H43       -12.4439   -1.2944   56.1788 H       1  ZINC000744839011    0.1600
@<TRIPOS>BOND
     1     1     2    1
     2     1    25    1
     3     1    26    1
     4     1    27    1
     5     2     3    1
     6     3     4    2
     7     3     5    1
     8     5    24   ar
     9     5     6   ar
    10     6     7   ar
    11     6    28    1
    12     7     8   ar
    13     7    29    1
    14     8     9    1
    15     8    22   ar
    16     9    10    1
    17    10    11    1
    18    10    30    1
    19    10    31    1
    20    11    12    1
    21    11    32    1
    22    11    33    1
    23    12    13    1
    24    13    14    2
    25    13    15    1
    26    15    16    1
    27    15    34    1
    28    15    35    1
    29    16    17    2
    30    16    18    2
    31    16    19    1
    32    19    20    1
    33    19    21    1
    34    19    36    1
    35    20    37    1
    36    20    38    1
    37    20    39    1
    38    21    40    1
    39    21    41    1
    40    21    42    1
    41    22    23    1
    42    22    24   ar
    43    24    43    1
@<TRIPOS>SUBSTRUCTURE
     1 ZINC000744839011        1 TEMP              0 ****  ****    0 ROOT


##########                                Name:    ZINC000654382142
##########                DOCK_Rotatable_Bonds:                  14
##########                         Heavy_Atoms:                  24
##########                    Molecular_Weight:             379.401
##########                DOCK_Rotatable_Bonds:                  14
##########                       Formal_Charge:          0.00999933
##########                     HBond_Acceptors:                  12
##########                        HBond_Donors:                   2
##########                         Heavy_Atoms:                  24
##########                          Grid_Score:          -31.870823
##########                     Grid_vdw_energy:          -28.496773
##########                      Grid_es_energy:           -3.374050
##########           Internal_energy_repulsive:           19.643141

@<TRIPOS>MOLECULE
ZINC000654382142
 48 47 1 0 0
SMALL
USER_CHARGES


@<TRIPOS>ATOM
      1 C1          3.2808   -0.2807   52.0524 C.3     1  ZINC000654382142    0.0300
      2 O2          3.6529    1.0969   52.1293 O.3     1  ZINC000654382142   -0.3700
      3 C3          2.5437    1.9962   52.1855 C.3     1  ZINC000654382142    0.0400
      4 C4          1.9500    2.1617   50.7852 C.3     1  ZINC000654382142    0.1400
      5 N5          0.6332    2.7960   50.8849 N.am    1  ZINC000654382142   -0.6100
      6 C6          0.4769    4.0458   51.6331 C.3     1  ZINC000654382142    0.0800
      7 C7         -0.2286    3.7607   52.9605 C.3     1  ZINC000654382142    0.0500
      8 H8         -0.0990    2.7107   53.2227 H       1  ZINC000654382142    0.1400
      9 O9         -1.6219    4.0511   52.8313 O.3     1  ZINC000654382142   -0.5200
     10 C10         0.3757    4.6388   54.0582 C.3     1  ZINC000654382142    0.4200
     11 F11         0.2641    5.9847   53.6930 F       1  ZINC000654382142   -0.1800
     12 F12        -0.3099    4.4229   55.2583 F       1  ZINC000654382142   -0.1700
     13 F13         1.7254    4.3118   54.2267 F       1  ZINC000654382142   -0.1800
     14 C14        -0.4345    2.2298   50.2884 C.2     1  ZINC000654382142    0.7100
     15 O15        -1.5271    2.7570   50.3700 O.2     1  ZINC000654382142   -0.5600
     16 N16        -0.2911    1.0791   49.6015 N.am    1  ZINC000654382142   -0.7500
     17 C17        -1.4521    0.4627   48.9546 C.3     1  ZINC000654382142    0.1400
     18 C18        -1.5391    0.9380   47.5029 C.3     1  ZINC000654382142   -0.1600
     19 C19        -0.4899    0.2069   46.6631 C.3     1  ZINC000654382142    0.1200
     20 N20        -0.3646    0.8625   45.3591 N.am    1  ZINC000654382142   -1.0000
     21 C21        -1.5263    0.9556   44.4714 C.3     1  ZINC000654382142    0.0900
     22 S22         1.0901    1.4986   44.8884 S.o2    1  ZINC000654382142    2.6100
     23 C23         1.4694    2.7442   46.1514 C.3     1  ZINC000654382142   -0.6800
     24 O24         1.9952    0.4067   44.9773 O.2     1  ZINC000654382142   -0.9500
     25 O25         0.8135    2.1212   43.6414 O.2     1  ZINC000654382142   -0.9500
     26 H26         4.1785   -0.8978   52.0132 H       1  ZINC000654382142    0.0900
     27 H27         2.6941   -0.5482   52.9313 H       1  ZINC000654382142    0.0400
     28 H28         2.6861   -0.4469   51.1542 H       1  ZINC000654382142    0.0400
     29 H29         1.7845    1.5952   52.8569 H       1  ZINC000654382142    0.0500
     30 H30         2.8800    2.9651   52.5545 H       1  ZINC000654382142    0.0600
     31 H31         2.6094    2.7863   50.1825 H       1  ZINC000654382142    0.0900
     32 H32         1.8474    1.1832   50.3161 H       1  ZINC000654382142    0.1000
     33 H33         1.4586    4.4773   51.8287 H       1  ZINC000654382142    0.1000
     34 H34        -0.1184    4.7473   51.0486 H       1  ZINC000654382142    0.1000
     35 H35        -1.8110    4.9618   52.5672 H       1  ZINC000654382142    0.3900
     36 H36         0.5807    0.6592   49.5354 H       1  ZINC000654382142    0.3900
     37 H37        -1.3465   -0.6220   48.9761 H       1  ZINC000654382142    0.0700
     38 H38        -2.3593    0.7500   49.4861 H       1  ZINC000654382142    0.0700
     39 H39        -2.5329    0.7241   47.1095 H       1  ZINC000654382142    0.0700
     40 H40        -1.3548    2.0114   47.4605 H       1  ZINC000654382142    0.0800
     41 H41         0.4708    0.2344   47.1774 H       1  ZINC000654382142    0.0900
     42 H42        -0.7962   -0.8296   46.5208 H       1  ZINC000654382142    0.1000
     43 H43        -2.0692    1.8777   44.6788 H       1  ZINC000654382142    0.0600
     44 H44        -1.1918    0.9564   43.4340 H       1  ZINC000654382142    0.0700
     45 H45        -2.1824    0.1018   44.6409 H       1  ZINC000654382142    0.0700
     46 H46         1.5320    2.2640   47.1280 H       1  ZINC000654382142    0.1300
     47 H47         2.4223    3.2195   45.9185 H       1  ZINC000654382142    0.1300
     48 H48         0.6817    3.4976   46.1668 H       1  ZINC000654382142    0.1300
@<TRIPOS>BOND
     1     1     2    1
     2     1    26    1
     3     1    27    1
     4     1    28    1
     5     2     3    1
     6     3     4    1
     7     3    29    1
     8     3    30    1
     9     4     5    1
    10     4    31    1
    11     4    32    1
    12     5     6    1
    13     5    14   am
    14     6     7    1
    15     6    33    1
    16     6    34    1
    17     7     8    1
    18     7     9    1
    19     7    10    1
    20     9    35    1
    21    10    11    1
    22    10    12    1
    23    10    13    1
    24    14    15    2
    25    14    16   am
    26    16    17    1
    27    16    36    1
    28    17    18    1
    29    17    37    1
    30    17    38    1
    31    18    19    1
    32    18    39    1
    33    18    40    1
    34    19    20    1
    35    19    41    1
    36    19    42    1
    37    20    21    1
    38    20    22   am
    39    21    43    1
    40    21    44    1
    41    21    45    1
    42    22    23    1
    43    22    24    2
    44    22    25    2
    45    23    46    1
    46    23    47    1
    47    23    48    1
@<TRIPOS>SUBSTRUCTURE
     1 ZINC000654382142        1 TEMP              0 ****  ****    0 ROOT


##########                                Name:    ZINC000766421809
##########                DOCK_Rotatable_Bonds:                   7
##########                         Heavy_Atoms:                  26
##########                    Molecular_Weight:             358.372
##########                DOCK_Rotatable_Bonds:                   7
##########                       Formal_Charge:         4.61936e-07
##########                     HBond_Acceptors:                   8
##########                        HBond_Donors:                   0
##########                         Heavy_Atoms:                  26
##########                          Grid_Score:          -31.817755
##########                     Grid_vdw_energy:          -31.812712
##########                      Grid_es_energy:           -0.005042
##########           Internal_energy_repulsive:            7.771037

@<TRIPOS>MOLECULE
ZINC000766421809
 45 47 1 0 0
SMALL
USER_CHARGES


@<TRIPOS>ATOM
      1 C1        -14.8970   -7.2341   56.2535 C.3     1  ZINC000766421809   -0.0700
      2 C2        -14.7022   -5.7425   56.1613 C.2     1  ZINC000766421809    0.0700
      3 N3        -15.4723   -4.9069   55.5129 N.2     1  ZINC000766421809   -0.2900
      4 N4        -14.9509   -3.6167   55.6732 N.pl3   1  ZINC000766421809   -0.3700
      5 C5        -15.5092   -2.3852   55.1092 C.3     1  ZINC000766421809    0.1000
      6 C6        -13.8435   -3.7083   56.4389 C.2     1  ZINC000766421809    0.0700
      7 C7        -12.9613   -2.5637   56.8661 C.3     1  ZINC000766421809    0.1400
      8 O8        -12.1779   -2.9617   58.0219 O.3     1  ZINC000766421809   -0.3400
      9 C9        -10.9238   -3.3819   57.7927 C.2     1  ZINC000766421809    0.4700
     10 O10       -10.4680   -3.3414   56.6745 O.2     1  ZINC000766421809   -0.5000
     11 C11       -10.0844   -3.9040   58.9303 C.3     1  ZINC000766421809   -0.1100
     12 C12        -8.9263   -2.9395   59.1940 C.3     1  ZINC000766421809   -0.0200
     13 C13        -9.3841   -1.8478   60.1265 C.2     1  ZINC000766421809    0.1900
     14 N14        -9.1945   -1.8008   61.4215 N.2     1  ZINC000766421809   -0.4700
     15 C15        -9.7730   -0.6493   61.8318 C.2     1  ZINC000766421809    0.2200
     16 C16        -9.8276   -0.1380   63.2236 C.ar    1  ZINC000766421809   -0.0300
     17 C17        -9.2200   -0.8519   64.2545 C.ar    1  ZINC000766421809   -0.0500
     18 C18        -9.2727   -0.3726   65.5473 C.ar    1  ZINC000766421809   -0.1500
     19 C19        -9.9290    0.8164   65.8211 C.ar    1  ZINC000766421809    0.1200
     20 F20        -9.9786    1.2820   67.0884 F       1  ZINC000766421809   -0.1300
     21 C21       -10.5342    1.5298   64.7987 C.ar    1  ZINC000766421809   -0.1200
     22 C22       -11.2458    2.8231   65.1025 C.3     1  ZINC000766421809   -0.1200
     23 C23       -10.4818    1.0606   63.5026 C.ar    1  ZINC000766421809   -0.0600
     24 N24       -10.2750   -0.0707   60.7718 N.2     1  ZINC000766421809   -0.3700
     25 O25       -10.0549   -0.7428   59.7864 O.3     1  ZINC000766421809    0.0900
     26 C26       -13.6703   -5.0117   56.7591 C.2     1  ZINC000766421809   -0.2400
     27 H27       -15.5212   -7.4663   57.1164 H       1  ZINC000766421809    0.0800
     28 H28       -15.3828   -7.5938   55.3465 H       1  ZINC000766421809    0.0700
     29 H29       -13.9281   -7.7208   56.3644 H       1  ZINC000766421809    0.0800
     30 H30       -16.2208   -1.9533   55.8128 H       1  ZINC000766421809    0.0800
     31 H31       -14.7048   -1.6735   54.9231 H       1  ZINC000766421809    0.0900
     32 H32       -16.0172   -2.6125   54.1720 H       1  ZINC000766421809    0.0900
     33 H33       -12.2922   -2.2960   56.0484 H       1  ZINC000766421809    0.0900
     34 H34       -13.5805   -1.7048   57.1249 H       1  ZINC000766421809    0.0900
     35 H35       -10.6988   -3.9877   59.8267 H       1  ZINC000766421809    0.1200
     36 H36        -9.6878   -4.8850   58.6687 H       1  ZINC000766421809    0.1200
     37 H37        -8.0979   -3.4824   59.6491 H       1  ZINC000766421809    0.1200
     38 H38        -8.5985   -2.4993   58.2523 H       1  ZINC000766421809    0.1200
     39 H39        -8.7087   -1.7792   64.0420 H       1  ZINC000766421809    0.1500
     40 H40        -8.8020   -0.9253   66.3469 H       1  ZINC000766421809    0.1500
     41 H41       -10.5435    3.6524   65.0194 H       1  ZINC000766421809    0.0800
     42 H42       -12.0608    2.9648   64.3927 H       1  ZINC000766421809    0.0800
     43 H43       -11.6478    2.7874   66.1150 H       1  ZINC000766421809    0.0700
     44 H44       -10.9538    1.6172   62.7065 H       1  ZINC000766421809    0.1400
     45 H45       -12.8726   -5.4167   57.3641 H       1  ZINC000766421809    0.1500
@<TRIPOS>BOND
     1     1     2    1
     2     1    27    1
     3     1    28    1
     4     1    29    1
     5     2    26    1
     6     2     3    2
     7     3     4    1
     8     4     5    1
     9     4     6    1
    10     5    30    1
    11     5    31    1
    12     5    32    1
    13     6     7    1
    14     6    26    2
    15     7     8    1
    16     7    33    1
    17     7    34    1
    18     8     9    1
    19     9    10    2
    20     9    11    1
    21    11    12    1
    22    11    35    1
    23    11    36    1
    24    12    13    1
    25    12    37    1
    26    12    38    1
    27    13    25    1
    28    13    14    2
    29    14    15    1
    30    15    16    1
    31    15    24    2
    32    16    23   ar
    33    16    17   ar
    34    17    18   ar
    35    17    39    1
    36    18    19   ar
    37    18    40    1
    38    19    20    1
    39    19    21   ar
    40    21    22    1
    41    21    23   ar
    42    22    41    1
    43    22    42    1
    44    22    43    1
    45    23    44    1
    46    24    25    1
    47    26    45    1
@<TRIPOS>SUBSTRUCTURE
     1 ZINC000766421809        1 TEMP              0 ****  ****    0 ROOT


##########                                Name:    ZINC000992031068
##########                DOCK_Rotatable_Bonds:                   8
##########                         Heavy_Atoms:                  25
##########                    Molecular_Weight:             342.401
##########                DOCK_Rotatable_Bonds:                   8
##########                       Formal_Charge:           0.0199999
##########                     HBond_Acceptors:                   8
##########                        HBond_Donors:                   2
##########                         Heavy_Atoms:                  25
##########                          Grid_Score:          -31.799982
##########                     Grid_vdw_energy:          -32.043968
##########                      Grid_es_energy:            0.243987
##########           Internal_energy_repulsive:            7.994267

@<TRIPOS>MOLECULE
ZINC000992031068
 47 49 1 0 0
SMALL
USER_CHARGES


@<TRIPOS>ATOM
      1 C1        -12.0559    1.6383   65.2769 C.3     1  ZINC000992031068   -0.1100
      2 C2        -10.9997    0.6913   64.7682 C.ar    1  ZINC000992031068    0.1800
      3 C3        -11.1191    0.1148   63.5118 C.ar    1  ZINC000992031068   -0.1700
      4 C4        -10.1147   -0.7551   63.0858 C.ar    1  ZINC000992031068    0.1300
      5 C5        -10.1908   -1.3997   61.7507 C.2     1  ZINC000992031068    0.5700
      6 O6        -11.0937   -2.1729   61.5001 O.2     1  ZINC000992031068   -0.5200
      7 N7         -9.2583   -1.1273   60.8166 N.am    1  ZINC000992031068   -0.7100
      8 C8         -9.3344   -1.7621   59.4985 C.3     1  ZINC000992031068    0.1300
      9 C9        -10.3180   -0.9903   58.6167 C.3     1  ZINC000992031068   -0.1200
     10 C10        -9.6671    0.1567   57.8256 C.3     1  ZINC000992031068   -0.1400
     11 C11       -10.5596   -0.2571   56.6436 C.3     1  ZINC000992031068    0.1200
     12 N12        -9.8798   -0.2007   55.3471 N.am    1  ZINC000992031068   -0.7200
     13 C13       -10.6004   -0.1914   54.2082 C.2     1  ZINC000992031068    0.5200
     14 O14       -11.8116   -0.2283   54.2567 O.2     1  ZINC000992031068   -0.5200
     15 C15        -9.9011   -0.1351   52.8745 C.3     1  ZINC000992031068   -0.0800
     16 C16        -8.6468    0.6908   52.9995 C.2     1  ZINC000992031068    0.1000
     17 C17        -8.5135    1.8372   53.7059 C.2     1  ZINC000992031068   -0.2500
     18 C18        -7.1952    2.2815   53.5606 C.2     1  ZINC000992031068    0.0500
     19 N19        -6.5598    1.4323   52.7946 N.2     1  ZINC000992031068   -0.2900
     20 N20        -7.4536    0.4164   52.4318 N.pl3   1  ZINC000992031068   -0.3700
     21 C21        -7.1492   -0.7355   51.5794 C.3     1  ZINC000992031068    0.1000
     22 C22       -10.5910   -1.6648   57.2619 C.3     1  ZINC000992031068   -0.1400
     23 N23        -9.0870   -0.9969   63.8960 N.ar    1  ZINC000992031068   -0.5000
     24 C24        -9.0155   -0.4272   65.0799 C.ar    1  ZINC000992031068    0.3000
     25 N25        -9.9448    0.4035   65.5112 N.ar    1  ZINC000992031068   -0.5100
     26 H26       -11.8021    2.6570   64.9838 H       1  ZINC000992031068    0.0900
     27 H27       -13.0221    1.3678   64.8509 H       1  ZINC000992031068    0.0900
     28 H28       -12.1075    1.5751   66.3638 H       1  ZINC000992031068    0.0900
     29 H29       -11.9674    0.3333   62.8801 H       1  ZINC000992031068    0.1600
     30 H30        -8.5367   -0.5109   61.0170 H       1  ZINC000992031068    0.4100
     31 H31        -8.3480   -1.7555   59.0346 H       1  ZINC000992031068    0.0700
     32 H32        -9.6765   -2.7911   59.6099 H       1  ZINC000992031068    0.0800
     33 H33       -11.2230   -0.6969   59.1486 H       1  ZINC000992031068    0.1000
     34 H34        -9.8974    1.1457   58.2213 H       1  ZINC000992031068    0.0800
     35 H35        -8.6027    0.0107   57.6411 H       1  ZINC000992031068    0.0900
     36 H36       -11.5300    0.2390   56.6346 H       1  ZINC000992031068    0.1200
     37 H37        -8.9111   -0.1699   55.3083 H       1  ZINC000992031068    0.4000
     38 H38        -9.6410   -1.1450   52.5575 H       1  ZINC000992031068    0.1200
     39 H39       -10.5626    0.3184   52.1362 H       1  ZINC000992031068    0.1100
     40 H40        -9.2883    2.3234   54.2801 H       1  ZINC000992031068    0.1500
     41 H41        -6.7747    3.1721   54.0039 H       1  ZINC000992031068    0.1800
     42 H42        -6.7957   -1.5612   52.1969 H       1  ZINC000992031068    0.0800
     43 H43        -8.0494   -1.0405   51.0456 H       1  ZINC000992031068    0.0800
     44 H44        -6.3762   -0.4618   50.8613 H       1  ZINC000992031068    0.0900
     45 H45        -9.7792   -2.3087   56.9233 H       1  ZINC000992031068    0.0900
     46 H46       -11.5672   -2.1460   57.2026 H       1  ZINC000992031068    0.0800
     47 H47        -8.1693   -0.6429   65.7153 H       1  ZINC000992031068    0.2100
@<TRIPOS>BOND
     1     1     2    1
     2     1    26    1
     3     1    27    1
     4     1    28    1
     5     2    25   ar
     6     2     3   ar
     7     3     4   ar
     8     3    29    1
     9     4     5    1
    10     4    23   ar
    11     5     6    2
    12     5     7   am
    13     7     8    1
    14     7    30    1
    15     8     9    1
    16     8    31    1
    17     8    32    1
    18     9    22    1
    19     9    10    1
    20     9    33    1
    21    10    11    1
    22    10    34    1
    23    10    35    1
    24    11    12    1
    25    11    22    1
    26    11    36    1
    27    12    13   am
    28    12    37    1
    29    13    14    2
    30    13    15    1
    31    15    16    1
    32    15    38    1
    33    15    39    1
    34    16    20    1
    35    16    17    2
    36    17    18    1
    37    17    40    1
    38    18    19    2
    39    18    41    1
    40    19    20    1
    41    20    21    1
    42    21    42    1
    43    21    43    1
    44    21    44    1
    45    22    45    1
    46    22    46    1
    47    23    24   ar
    48    24    25   ar
    49    24    47    1
@<TRIPOS>SUBSTRUCTURE
     1 ZINC000992031068        1 TEMP              0 ****  ****    0 ROOT


##########                                Name:    ZINC000298969660
##########                DOCK_Rotatable_Bonds:                  10
##########                         Heavy_Atoms:                  29
##########                    Molecular_Weight:             397.474
##########                DOCK_Rotatable_Bonds:                  10
##########                       Formal_Charge:          -0.0100008
##########                     HBond_Acceptors:                   7
##########                        HBond_Donors:                   2
##########                         Heavy_Atoms:                  29
##########                          Grid_Score:          -31.763151
##########                     Grid_vdw_energy:          -29.491167
##########                      Grid_es_energy:           -2.271985
##########           Internal_energy_repulsive:           13.445959

@<TRIPOS>MOLECULE
ZINC000298969660
 56 58 1 0 0
SMALL
USER_CHARGES


@<TRIPOS>ATOM
      1 C1         -9.1864   -2.4389   58.9369 C.3     1  ZINC000298969660    0.0800
      2 N2        -10.4743   -2.7525   59.5608 N.am    1  ZINC000298969660   -0.6300
      3 C3        -11.3677   -3.7351   58.9425 C.3     1  ZINC000298969660    0.1400
      4 C4        -11.9608   -3.1490   57.6597 C.3     1  ZINC000298969660    0.0700
      5 H5        -11.1557   -2.8001   57.0132 H       1  ZINC000298969660    0.0500
      6 C6        -12.8783   -1.9749   58.0114 C.3     1  ZINC000298969660   -0.1500
      7 C7        -13.5149   -1.4322   56.7283 C.3     1  ZINC000298969660   -0.1200
      8 C8        -14.2662   -2.5667   56.0248 C.3     1  ZINC000298969660   -0.1600
      9 C9        -13.2952   -3.7179   55.7498 C.3     1  ZINC000298969660    0.0600
     10 O10       -12.7154   -4.1548   56.9807 O.3     1  ZINC000298969660   -0.3600
     11 C11       -10.8370   -2.1370   60.7037 C.2     1  ZINC000298969660    0.7100
     12 O12       -11.9051   -2.3984   61.2223 O.2     1  ZINC000298969660   -0.5400
     13 N13       -10.0157   -1.2318   61.2716 N.am    1  ZINC000298969660   -0.6900
     14 C14       -10.3923   -0.5929   62.4583 C.ar    1  ZINC000298969660    0.2000
     15 C15        -9.6802   -0.8230   63.6282 C.ar    1  ZINC000298969660   -0.1800
     16 C16       -10.0524   -0.1925   64.7999 C.ar    1  ZINC000298969660   -0.0600
     17 C17       -11.1331    0.6683   64.8111 C.ar    1  ZINC000298969660   -0.2300
     18 C18       -11.8485    0.9020   63.6447 C.ar    1  ZINC000298969660    0.1500
     19 O19       -12.9115    1.7486   63.6573 O.3     1  ZINC000298969660   -0.2900
     20 C20       -13.9628    1.4565   64.5802 C.3     1  ZINC000298969660    0.0400
     21 C21       -14.8210    0.3469   64.0292 C.2     1  ZINC000298969660    0.5100
     22 O22       -15.1421   -0.5816   64.7404 O.2     1  ZINC000298969660   -0.4900
     23 N23       -15.2316    0.3865   62.7461 N.am    1  ZINC000298969660   -0.6700
     24 C24       -16.0284   -0.6437   62.2345 C.ar    1  ZINC000298969660    0.1400
     25 C25       -15.5383   -1.9420   62.1821 C.ar    1  ZINC000298969660   -0.1400
     26 C26       -16.3273   -2.9565   61.6765 C.ar    1  ZINC000298969660   -0.1000
     27 C27       -17.6038   -2.6806   61.2222 C.ar    1  ZINC000298969660   -0.1300
     28 C28       -18.0947   -1.3888   61.2726 C.ar    1  ZINC000298969660   -0.1000
     29 C29       -17.3131   -0.3709   61.7832 C.ar    1  ZINC000298969660   -0.1200
     30 C30       -11.4747    0.2759   62.4663 C.ar    1  ZINC000298969660   -0.1500
     31 H31        -9.3132   -1.6125   58.2374 H       1  ZINC000298969660    0.0600
     32 H32        -8.4688   -2.1560   59.7071 H       1  ZINC000298969660    0.0700
     33 H33        -8.8190   -3.3145   58.4019 H       1  ZINC000298969660    0.0800
     34 H34       -10.8052   -4.6377   58.7034 H       1  ZINC000298969660    0.1000
     35 H35       -12.1722   -3.9814   59.6353 H       1  ZINC000298969660    0.0900
     36 H36       -13.6604   -2.3145   58.6905 H       1  ZINC000298969660    0.0800
     37 H37       -12.2955   -1.1879   58.4900 H       1  ZINC000298969660    0.0700
     38 H38       -14.2123   -0.6323   56.9772 H       1  ZINC000298969660    0.0700
     39 H39       -12.7364   -1.0471   56.0696 H       1  ZINC000298969660    0.0600
     40 H40       -15.0763   -2.9182   56.6637 H       1  ZINC000298969660    0.0700
     41 H41       -14.6760   -2.2028   55.0825 H       1  ZINC000298969660    0.0700
     42 H42       -13.8338   -4.5452   55.2878 H       1  ZINC000298969660    0.0900
     43 H43       -12.5075   -3.3764   55.0781 H       1  ZINC000298969660    0.0400
     44 H44        -9.1635   -1.0233   60.8578 H       1  ZINC000298969660    0.4100
     45 H45        -8.8350   -1.4954   63.6221 H       1  ZINC000298969660    0.1300
     46 H46        -9.4978   -0.3732   65.7088 H       1  ZINC000298969660    0.1300
     47 H47       -11.4217    1.1597   65.7285 H       1  ZINC000298969660    0.1300
     48 H48       -13.5340    1.1453   65.5327 H       1  ZINC000298969660    0.1000
     49 H49       -14.5727    2.3474   64.7300 H       1  ZINC000298969660    0.1000
     50 H50       -14.9748    1.1291   62.1774 H       1  ZINC000298969660    0.4100
     51 H51       -14.5410   -2.1579   62.5360 H       1  ZINC000298969660    0.1300
     52 H52       -15.9466   -3.9664   61.6355 H       1  ZINC000298969660    0.1300
     53 H53       -18.2187   -3.4757   60.8270 H       1  ZINC000298969660    0.1200
     54 H54       -19.0919   -1.1764   60.9165 H       1  ZINC000298969660    0.1300
     55 H55       -17.6970    0.6378   61.8223 H       1  ZINC000298969660    0.1300
     56 H56       -12.0302    0.4565   61.5579 H       1  ZINC000298969660    0.1500
@<TRIPOS>BOND
     1     1     2    1
     2     1    31    1
     3     1    32    1
     4     1    33    1
     5     2     3    1
     6     2    11   am
     7     3     4    1
     8     3    34    1
     9     3    35    1
    10     4     5    1
    11     4    10    1
    12     4     6    1
    13     6     7    1
    14     6    36    1
    15     6    37    1
    16     7     8    1
    17     7    38    1
    18     7    39    1
    19     8     9    1
    20     8    40    1
    21     8    41    1
    22     9    10    1
    23     9    42    1
    24     9    43    1
    25    11    12    2
    26    11    13   am
    27    13    14    1
    28    13    44    1
    29    14    30   ar
    30    14    15   ar
    31    15    16   ar
    32    15    45    1
    33    16    17   ar
    34    16    46    1
    35    17    18   ar
    36    17    47    1
    37    18    19    1
    38    18    30   ar
    39    19    20    1
    40    20    21    1
    41    20    48    1
    42    20    49    1
    43    21    22    2
    44    21    23   am
    45    23    24    1
    46    23    50    1
    47    24    29   ar
    48    24    25   ar
    49    25    26   ar
    50    25    51    1
    51    26    27   ar
    52    26    52    1
    53    27    28   ar
    54    27    53    1
    55    28    29   ar
    56    28    54    1
    57    29    55    1
    58    30    56    1
@<TRIPOS>SUBSTRUCTURE
     1 ZINC000298969660        1 TEMP              0 ****  ****    0 ROOT


##########                                Name:    ZINC000190927708
##########                DOCK_Rotatable_Bonds:                  10
##########                         Heavy_Atoms:                  26
##########                    Molecular_Weight:             358.437
##########                DOCK_Rotatable_Bonds:                  10
##########                       Formal_Charge:           0.0499998
##########                     HBond_Acceptors:                   6
##########                        HBond_Donors:                   1
##########                         Heavy_Atoms:                  26
##########                          Grid_Score:          -31.681627
##########                     Grid_vdw_energy:          -30.033129
##########                      Grid_es_energy:           -1.648498
##########           Internal_energy_repulsive:           20.092016

@<TRIPOS>MOLECULE
ZINC000190927708
 52 53 1 0 0
SMALL
USER_CHARGES


@<TRIPOS>ATOM
      1 C1        -18.1541   -2.7763   60.8289 C.3     1  ZINC000190927708   -0.1500
      2 C2        -17.3362   -2.6032   59.5474 C.3     1  ZINC000190927708   -0.1500
      3 C3        -16.4275   -3.8187   59.3542 C.3     1  ZINC000190927708    0.1000
      4 N4        -15.1455   -3.3857   58.7928 N.am    1  ZINC000190927708   -0.5900
      5 C5        -14.1965   -2.8700   59.5992 C.2     1  ZINC000190927708    0.5300
      6 O6        -14.4045   -2.7630   60.7891 O.2     1  ZINC000190927708   -0.5300
      7 C7        -12.8772   -2.4262   59.0220 C.3     1  ZINC000190927708   -0.0800
      8 C8        -11.9664   -1.9787   60.1362 C.2     1  ZINC000190927708   -0.1700
      9 C9        -12.1275   -0.7507   60.6882 C.2     1  ZINC000190927708    0.0000
     10 C10       -11.2266   -0.3463   61.7691 C.ar    1  ZINC000190927708   -0.1300
     11 C11       -11.3442    0.9071   62.3782 C.ar    1  ZINC000190927708   -0.0500
     12 C12       -10.4882    1.2538   63.3852 C.ar    1  ZINC000190927708   -0.1500
     13 C13        -9.5028    0.3731   63.8091 C.ar    1  ZINC000190927708   -0.0600
     14 C14        -9.3682   -0.8672   63.2230 C.ar    1  ZINC000190927708   -0.1600
     15 C15       -10.2283   -1.2423   62.1965 C.ar    1  ZINC000190927708    0.1900
     16 N16       -10.1167   -2.4768   61.5928 N.am    1  ZINC000190927708   -0.6300
     17 C17       -10.9528   -2.8416   60.6051 C.2     1  ZINC000190927708    0.5500
     18 O18       -10.8249   -3.9408   60.0941 O.2     1  ZINC000190927708   -0.5300
     19 C19       -14.8949   -3.5131   57.3551 C.3     1  ZINC000190927708    0.1500
     20 H20       -13.9179   -3.0919   57.1178 H       1  ZINC000190927708    0.1400
     21 C21       -15.9772   -2.7591   56.5799 C.3     1  ZINC000190927708   -0.1300
     22 C22       -15.3740   -2.1711   55.3028 C.3     1  ZINC000190927708   -0.1500
     23 C23       -14.9216   -4.9692   56.9676 C.2     1  ZINC000190927708    0.4500
     24 O24       -14.7193   -5.8200   57.8014 O.2     1  ZINC000190927708   -0.5000
     25 O25       -15.1701   -5.3210   55.6964 O.3     1  ZINC000190927708   -0.3500
     26 C26       -15.1607   -6.7406   55.3913 C.3     1  ZINC000190927708    0.0600
     27 C27       -15.4699   -6.9453   53.9070 C.3     1  ZINC000190927708   -0.1500
     28 H28       -17.4800   -2.8651   61.6809 H       1  ZINC000190927708    0.0600
     29 H29       -18.8015   -1.9103   60.9664 H       1  ZINC000190927708    0.0600
     30 H30       -18.7633   -3.6769   60.7522 H       1  ZINC000190927708    0.0600
     31 H31       -18.0103   -2.5144   58.6954 H       1  ZINC000190927708    0.0800
     32 H32       -16.7270   -1.7026   59.6240 H       1  ZINC000190927708    0.0700
     33 H33       -16.2581   -4.3023   60.3163 H       1  ZINC000190927708    0.0900
     34 H34       -16.9032   -4.5233   58.6721 H       1  ZINC000190927708    0.0900
     35 H35       -12.4164   -3.2570   58.4876 H       1  ZINC000190927708    0.1100
     36 H36       -13.0422   -1.5979   58.3328 H       1  ZINC000190927708    0.1200
     37 H37       -12.9029   -0.0855   60.3381 H       1  ZINC000190927708    0.1400
     38 H38       -12.1081    1.5981   62.0538 H       1  ZINC000190927708    0.1400
     39 H39       -10.5790    2.2220   63.8551 H       1  ZINC000190927708    0.1300
     40 H40        -8.8343    0.6628   64.6064 H       1  ZINC000190927708    0.1300
     41 H41        -8.5981   -1.5453   63.5601 H       1  ZINC000190927708    0.1300
     42 H42        -9.4277   -3.0926   61.8878 H       1  ZINC000190927708    0.4200
     43 H43       -16.7823   -3.4460   56.3188 H       1  ZINC000190927708    0.0900
     44 H44       -16.3732   -1.9540   57.1989 H       1  ZINC000190927708    0.0800
     45 H45       -16.1450   -1.6339   54.7506 H       1  ZINC000190927708    0.0600
     46 H46       -14.5690   -1.4843   55.5640 H       1  ZINC000190927708    0.0600
     47 H47       -14.9781   -2.9763   54.6839 H       1  ZINC000190927708    0.0600
     48 H48       -14.1782   -7.1545   55.6183 H       1  ZINC000190927708    0.0700
     49 H49       -15.9159   -7.2464   55.9930 H       1  ZINC000190927708    0.0700
     50 H50       -16.4524   -6.5315   53.6800 H       1  ZINC000190927708    0.0700
     51 H51       -14.7148   -6.4394   53.3053 H       1  ZINC000190927708    0.0700
     52 H52       -15.4629   -8.0110   53.6780 H       1  ZINC000190927708    0.0800
@<TRIPOS>BOND
     1     1     2    1
     2     1    28    1
     3     1    29    1
     4     1    30    1
     5     2     3    1
     6     2    31    1
     7     2    32    1
     8     3     4    1
     9     3    33    1
    10     3    34    1
    11     4     5   am
    12     4    19    1
    13     5     6    2
    14     5     7    1
    15     7     8    1
    16     7    35    1
    17     7    36    1
    18     8    17    1
    19     8     9    2
    20     9    10    1
    21     9    37    1
    22    10    15   ar
    23    10    11   ar
    24    11    12   ar
    25    11    38    1
    26    12    13   ar
    27    12    39    1
    28    13    14   ar
    29    13    40    1
    30    14    15   ar
    31    14    41    1
    32    15    16    1
    33    16    17   am
    34    16    42    1
    35    17    18    2
    36    19    20    1
    37    19    21    1
    38    19    23    1
    39    21    22    1
    40    21    43    1
    41    21    44    1
    42    22    45    1
    43    22    46    1
    44    22    47    1
    45    23    24    2
    46    23    25    1
    47    25    26    1
    48    26    27    1
    49    26    48    1
    50    26    49    1
    51    27    50    1
    52    27    51    1
    53    27    52    1
@<TRIPOS>SUBSTRUCTURE
     1 ZINC000190927708        1 TEMP              0 ****  ****    0 ROOT


##########                                Name:    ZINC000770850676
##########                DOCK_Rotatable_Bonds:                  13
##########                         Heavy_Atoms:                  30
##########                    Molecular_Weight:             412.486
##########                DOCK_Rotatable_Bonds:                  13
##########                       Formal_Charge:          -0.0299994
##########                     HBond_Acceptors:                   7
##########                        HBond_Donors:                   3
##########                         Heavy_Atoms:                  30
##########                          Grid_Score:          -31.675846
##########                     Grid_vdw_energy:          -31.262739
##########                      Grid_es_energy:           -0.413108
##########           Internal_energy_repulsive:           13.833755

@<TRIPOS>MOLECULE
ZINC000770850676
 58 60 1 0 0
SMALL
USER_CHARGES


@<TRIPOS>ATOM
      1 O1        -12.4404    0.3487   57.6263 O.2     1  ZINC000770850676   -0.5300
      2 C2        -12.0542   -0.7867   57.4451 C.2     1  ZINC000770850676    0.5100
      3 N3        -11.5850   -1.1540   56.2362 N.am    1  ZINC000770850676   -0.7000
      4 C4        -11.5473   -0.1836   55.1393 C.3     1  ZINC000770850676    0.1600
      5 H5        -11.6951    0.8204   55.5372 H       1  ZINC000770850676    0.1000
      6 C6        -12.6580   -0.5034   54.1369 C.3     1  ZINC000770850676    0.0600
      7 O7        -13.7921    0.3245   54.4022 O.3     1  ZINC000770850676   -0.5700
      8 C8        -10.1897   -0.2593   54.4377 C.3     1  ZINC000770850676   -0.1500
      9 C9        -10.0251    0.9490   53.5137 C.3     1  ZINC000770850676    0.1500
     10 H10       -10.7717    0.9043   52.7208 H       1  ZINC000770850676    0.1100
     11 O11       -10.2003    2.1513   54.2658 O.3     1  ZINC000770850676   -0.5400
     12 C12        -8.6459    0.9328   52.9066 C.ar    1  ZINC000770850676   -0.1200
     13 C13        -8.4074    0.2110   51.7519 C.ar    1  ZINC000770850676   -0.1100
     14 C14        -7.1423    0.1962   51.1950 C.ar    1  ZINC000770850676   -0.1200
     15 C15        -6.1158    0.9035   51.7924 C.ar    1  ZINC000770850676   -0.1200
     16 C16        -6.3545    1.6260   52.9465 C.ar    1  ZINC000770850676   -0.1200
     17 C17        -7.6206    1.6443   53.5010 C.ar    1  ZINC000770850676   -0.1100
     18 C18       -12.0929   -1.7850   58.5734 C.3     1  ZINC000770850676    0.1400
     19 H19       -12.8712   -1.5096   59.2851 H       1  ZINC000770850676    0.1000
     20 C20       -10.7235   -1.8276   59.2836 C.3     1  ZINC000770850676   -0.1200
     21 C21       -10.5441   -3.3355   59.6022 C.3     1  ZINC000770850676   -0.1300
     22 C22       -11.2009   -3.9952   58.3640 C.3     1  ZINC000770850676    0.1000
     23 N23       -12.3547   -3.1305   58.0417 N.am    1  ZINC000770850676   -0.5900
     24 C24       -13.4597   -3.5125   57.3712 C.2     1  ZINC000770850676    0.6700
     25 O25       -14.3498   -2.7125   57.1611 O.2     1  ZINC000770850676   -0.5600
     26 O26       -13.5771   -4.7806   56.9343 O.3     1  ZINC000770850676   -0.3600
     27 C27       -14.8720   -5.4169   57.0980 C.3     1  ZINC000770850676    0.1300
     28 C28       -15.4221   -5.7915   55.7459 C.ar    1  ZINC000770850676   -0.1000
     29 C29       -15.2995   -7.0890   55.2852 C.ar    1  ZINC000770850676   -0.0900
     30 C30       -15.8041   -7.4326   54.0449 C.ar    1  ZINC000770850676   -0.1200
     31 C31       -16.4318   -6.4788   53.2656 C.ar    1  ZINC000770850676   -0.1100
     32 C32       -16.5551   -5.1815   53.7268 C.ar    1  ZINC000770850676   -0.1200
     33 C33       -16.0543   -4.8389   54.9689 C.ar    1  ZINC000770850676   -0.0900
     34 H34       -11.2724   -2.0609   56.0922 H       1  ZINC000770850676    0.4000
     35 H35       -12.2993   -0.3152   53.1249 H       1  ZINC000770850676    0.0500
     36 H36       -12.9428   -1.5513   54.2323 H       1  ZINC000770850676    0.0500
     37 H37       -13.6538    1.2590   54.1957 H       1  ZINC000770850676    0.3800
     38 H38        -9.3948   -0.2573   55.1835 H       1  ZINC000770850676    0.0800
     39 H39       -10.1347   -1.1759   53.8507 H       1  ZINC000770850676    0.0900
     40 H40        -9.5535    2.2696   54.9747 H       1  ZINC000770850676    0.3700
     41 H41        -9.2094   -0.3416   51.2852 H       1  ZINC000770850676    0.1200
     42 H42        -6.9558   -0.3683   50.2934 H       1  ZINC000770850676    0.1200
     43 H43        -5.1272    0.8913   51.3578 H       1  ZINC000770850676    0.1200
     44 H44        -5.5525    2.1783   53.4135 H       1  ZINC000770850676    0.1200
     45 H45        -7.8071    2.2088   54.4027 H       1  ZINC000770850676    0.1200
     46 H46        -9.9335   -1.4772   58.6194 H       1  ZINC000770850676    0.0800
     47 H47       -10.7464   -1.2397   60.2012 H       1  ZINC000770850676    0.1000
     48 H48        -9.4883   -3.5975   59.6705 H       1  ZINC000770850676    0.0900
     49 H49       -11.0724   -3.6073   60.5161 H       1  ZINC000770850676    0.0800
     50 H50       -10.4992   -4.0199   57.5303 H       1  ZINC000770850676    0.0700
     51 H51       -11.5396   -5.0027   58.6058 H       1  ZINC000770850676    0.0900
     52 H52       -14.7614   -6.3144   57.7066 H       1  ZINC000770850676    0.0800
     53 H53       -15.5566   -4.7262   57.5902 H       1  ZINC000770850676    0.0800
     54 H54       -14.8092   -7.8342   55.8940 H       1  ZINC000770850676    0.1200
     55 H55       -15.7078   -8.4462   53.6846 H       1  ZINC000770850676    0.1300
     56 H56       -16.8254   -6.7471   52.2963 H       1  ZINC000770850676    0.1300
     57 H57       -17.0451   -4.4362   53.1178 H       1  ZINC000770850676    0.1300
     58 H58       -16.1507   -3.8254   55.3291 H       1  ZINC000770850676    0.1200
@<TRIPOS>BOND
     1     1     2    2
     2     2     3   am
     3     2    18    1
     4     3     4    1
     5     3    34    1
     6     4     5    1
     7     4     6    1
     8     4     8    1
     9     6     7    1
    10     6    35    1
    11     6    36    1
    12     7    37    1
    13     8     9    1
    14     8    38    1
    15     8    39    1
    16     9    10    1
    17     9    11    1
    18     9    12    1
    19    11    40    1
    20    12    17   ar
    21    12    13   ar
    22    13    14   ar
    23    13    41    1
    24    14    15   ar
    25    14    42    1
    26    15    16   ar
    27    15    43    1
    28    16    17   ar
    29    16    44    1
    30    17    45    1
    31    18    19    1
    32    18    23    1
    33    18    20    1
    34    20    21    1
    35    20    46    1
    36    20    47    1
    37    21    22    1
    38    21    48    1
    39    21    49    1
    40    22    23    1
    41    22    50    1
    42    22    51    1
    43    23    24   am
    44    24    25    2
    45    24    26    1
    46    26    27    1
    47    27    28    1
    48    27    52    1
    49    27    53    1
    50    28    33   ar
    51    28    29   ar
    52    29    30   ar
    53    29    54    1
    54    30    31   ar
    55    30    55    1
    56    31    32   ar
    57    31    56    1
    58    32    33   ar
    59    32    57    1
    60    33    58    1
@<TRIPOS>SUBSTRUCTURE
     1 ZINC000770850676        1 TEMP              0 ****  ****    0 ROOT


##########                                Name:    ZINC000788423111
##########                DOCK_Rotatable_Bonds:                   7
##########                         Heavy_Atoms:                  23
##########                    Molecular_Weight:             399.243
##########                DOCK_Rotatable_Bonds:                   7
##########                       Formal_Charge:         1.04308e-07
##########                     HBond_Acceptors:                   8
##########                        HBond_Donors:                   1
##########                         Heavy_Atoms:                  23
##########                          Grid_Score:          -31.657505
##########                     Grid_vdw_energy:          -28.549639
##########                      Grid_es_energy:           -3.107867
##########           Internal_energy_repulsive:            5.060193

@<TRIPOS>MOLECULE
ZINC000788423111
 35 37 1 0 0
SMALL
USER_CHARGES


@<TRIPOS>ATOM
      1 O1         -8.2580   -3.5097   59.4192 O.3     1  ZINC000788423111   -0.5400
      2 C2         -9.5351   -2.9562   59.0954 C.3     1  ZINC000788423111    0.1000
      3 H3         -9.5112   -2.5561   58.0818 H       1  ZINC000788423111    0.1300
      4 C4         -9.8683   -1.8329   60.0793 C.3     1  ZINC000788423111    0.0300
      5 O5         -9.8792   -2.3531   61.4103 O.3     1  ZINC000788423111   -0.2900
      6 C6        -10.3172   -1.5234   62.3933 C.ar    1  ZINC000788423111    0.1700
      7 C7        -11.6351   -1.0919   62.4018 C.ar    1  ZINC000788423111   -0.2400
      8 C8        -12.0789   -0.2468   63.4038 C.ar    1  ZINC000788423111    0.1500
      9 F9        -13.3626    0.1741   63.4130 F       1  ZINC000788423111   -0.1300
     10 C10       -11.2077    0.1670   64.3971 C.ar    1  ZINC000788423111   -0.1600
     11 C11        -9.8927   -0.2626   64.3891 C.ar    1  ZINC000788423111   -0.0300
     12 Br12       -8.7053    0.3045   65.7473 Br      1  ZINC000788423111   -0.0200
     13 C13        -9.4476   -1.1112   63.3930 C.ar    1  ZINC000788423111   -0.1300
     14 C14       -10.6026   -4.0484   59.1877 C.3     1  ZINC000788423111    0.1000
     15 N15       -11.6802   -3.7594   58.2384 N.pl3   1  ZINC000788423111   -0.1300
     16 N16       -12.0683   -2.5830   57.8886 N.2     1  ZINC000788423111   -0.0500
     17 N17       -13.0339   -2.6943   57.0408 N.2     1  ZINC000788423111   -0.2600
     18 C18       -13.2534   -4.0054   56.8574 C.2     1  ZINC000788423111    0.2400
     19 C19       -14.2674   -4.6164   55.9705 C.2     1  ZINC000788423111   -0.1300
     20 C20       -14.4614   -5.9395   55.8062 C.2     1  ZINC000788423111   -0.0800
     21 C21       -15.4692   -6.2695   54.9233 C.2     1  ZINC000788423111   -0.1400
     22 C22       -16.0976   -5.2298   54.3674 C.2     1  ZINC000788423111   -0.2000
     23 S23       -15.4116   -3.7279   54.9728 S.3     1  ZINC000788423111    0.1700
     24 N24       -12.3841   -4.6433   57.6187 N.2     1  ZINC000788423111   -0.2900
     25 H25        -7.6011   -2.8527   59.6872 H       1  ZINC000788423111    0.3800
     26 H26        -9.1163   -1.0476   60.0024 H       1  ZINC000788423111    0.0900
     27 H27       -10.8492   -1.4212   59.8421 H       1  ZINC000788423111    0.0800
     28 H28       -12.3145   -1.4149   61.6268 H       1  ZINC000788423111    0.1500
     29 H29       -11.5550    0.8263   65.1789 H       1  ZINC000788423111    0.1500
     30 H30        -8.4210   -1.4464   63.3877 H       1  ZINC000788423111    0.1500
     31 H31       -10.1565   -5.0136   58.9482 H       1  ZINC000788423111    0.1300
     32 H32       -11.0073   -4.0762   60.1995 H       1  ZINC000788423111    0.1300
     33 H33       -13.8742   -6.6831   56.3242 H       1  ZINC000788423111    0.1500
     34 H34       -15.7306   -7.2929   54.6981 H       1  ZINC000788423111    0.1500
     35 H35       -16.9077   -5.3009   53.6568 H       1  ZINC000788423111    0.1700
@<TRIPOS>BOND
     1     1     2    1
     2     1    25    1
     3     2     3    1
     4     2     4    1
     5     2    14    1
     6     4     5    1
     7     4    26    1
     8     4    27    1
     9     5     6    1
    10     6    13   ar
    11     6     7   ar
    12     7     8   ar
    13     7    28    1
    14     8     9    1
    15     8    10   ar
    16    10    11   ar
    17    10    29    1
    18    11    12    1
    19    11    13   ar
    20    13    30    1
    21    14    15    1
    22    14    31    1
    23    14    32    1
    24    15    24    1
    25    15    16    1
    26    16    17    2
    27    17    18    1
    28    18    19    1
    29    18    24    2
    30    19    23    1
    31    19    20    2
    32    20    21    1
    33    20    33    1
    34    21    22    2
    35    21    34    1
    36    22    23    1
    37    22    35    1
@<TRIPOS>SUBSTRUCTURE
     1 ZINC000788423111        1 TEMP              0 ****  ****    0 ROOT


##########                                Name:    ZINC000642096826
##########                DOCK_Rotatable_Bonds:                  12
##########                         Heavy_Atoms:                  25
##########                    Molecular_Weight:             345.485
##########                DOCK_Rotatable_Bonds:                  12
##########                       Formal_Charge:          0.00999919
##########                     HBond_Acceptors:                   5
##########                        HBond_Donors:                   1
##########                         Heavy_Atoms:                  25
##########                          Grid_Score:          -31.626015
##########                     Grid_vdw_energy:          -29.604162
##########                      Grid_es_energy:           -2.021853
##########           Internal_energy_repulsive:           29.742622

@<TRIPOS>MOLECULE
ZINC000642096826
 56 57 1 0 0
SMALL
USER_CHARGES


@<TRIPOS>ATOM
      1 C1        -15.2717   -5.7126   53.4081 C.3     1  ZINC000642096826   -0.1500
      2 C2        -15.5454   -4.5692   54.3873 C.3     1  ZINC000642096826   -0.1400
      3 C3        -14.5496   -4.6413   55.5466 C.3     1  ZINC000642096826    0.1200
      4 N4        -14.8117   -3.5465   56.4842 N.am    1  ZINC000642096826   -0.6200
      5 C5        -16.1636   -2.9955   56.6074 C.3     1  ZINC000642096826    0.1100
      6 C6        -16.3286   -1.8263   55.6344 C.3     1  ZINC000642096826   -0.1400
      7 C7        -17.7399   -1.2502   55.7642 C.3     1  ZINC000642096826   -0.1500
      8 C8        -13.8093   -3.0463   57.2334 C.2     1  ZINC000642096826    0.5200
      9 O9        -14.0267   -2.1411   58.0107 O.2     1  ZINC000642096826   -0.5200
     10 C10       -12.4183   -3.6119   57.1055 C.3     1  ZINC000642096826    0.0400
     11 N11       -11.7133   -3.4726   58.3867 N.3     1  ZINC000642096826   -0.5200
     12 C12       -10.8663   -4.6434   58.6514 C.3     1  ZINC000642096826    0.0100
     13 C13       -10.9248   -2.2337   58.4217 C.3     1  ZINC000642096826    0.0900
     14 C14       -10.6893   -1.8286   59.8540 C.ar    1  ZINC000642096826   -0.0500
     15 C15       -11.7666   -1.5659   60.6816 C.ar    1  ZINC000642096826   -0.1000
     16 C16       -11.5579   -1.1941   61.9936 C.ar    1  ZINC000642096826   -0.0600
     17 C17       -10.2564   -1.0836   62.4858 C.ar    1  ZINC000642096826   -0.1400
     18 C18       -10.0254   -0.6861   63.8909 C.2     1  ZINC000642096826    0.5600
     19 O19       -10.9574   -0.3205   64.5803 O.2     1  ZINC000642096826   -0.5300
     20 N20        -8.7814   -0.7291   64.4075 N.am    1  ZINC000642096826   -0.7000
     21 C21        -8.5521   -0.3335   65.7995 C.3     1  ZINC000642096826    0.0800
     22 C22        -7.2086    0.3159   66.1373 C.3     1  ZINC000642096826   -0.1900
     23 C23        -8.4818    1.1638   66.1059 C.3     1  ZINC000642096826   -0.1900
     24 C24        -9.1741   -1.3504   61.6459 C.ar    1  ZINC000642096826   -0.0900
     25 C25        -9.3969   -1.7264   60.3373 C.ar    1  ZINC000642096826   -0.1200
     26 H26       -14.2565   -5.6243   53.0211 H       1  ZINC000642096826    0.0600
     27 H27       -15.3825   -6.6666   53.9234 H       1  ZINC000642096826    0.0600
     28 H28       -15.9811   -5.6612   52.5822 H       1  ZINC000642096826    0.0600
     29 H29       -15.4346   -3.6151   53.8719 H       1  ZINC000642096826    0.0600
     30 H30       -16.5606   -4.6574   54.7743 H       1  ZINC000642096826    0.0600
     31 H31       -14.6604   -5.5953   56.0619 H       1  ZINC000642096826    0.0800
     32 H32       -13.5345   -4.5530   55.1596 H       1  ZINC000642096826    0.0800
     33 H33       -16.8942   -3.7696   56.3726 H       1  ZINC000642096826    0.0800
     34 H34       -16.3213   -2.6445   57.6273 H       1  ZINC000642096826    0.0800
     35 H35       -15.5974   -1.0527   55.8689 H       1  ZINC000642096826    0.0700
     36 H36       -16.1718   -2.1775   54.6146 H       1  ZINC000642096826    0.0700
     37 H37       -17.8575   -0.4173   55.0709 H       1  ZINC000642096826    0.0600
     38 H38       -18.4712   -2.0239   55.5298 H       1  ZINC000642096826    0.0600
     39 H39       -17.8968   -0.8991   56.7840 H       1  ZINC000642096826    0.0600
     40 H40       -12.4782   -4.6664   56.8365 H       1  ZINC000642096826    0.0600
     41 H41       -11.8755   -3.0697   56.3313 H       1  ZINC000642096826    0.1000
     42 H42       -10.1284   -4.7453   57.8558 H       1  ZINC000642096826    0.0200
     43 H43       -10.3561   -4.5142   59.6059 H       1  ZINC000642096826    0.0700
     44 H44       -11.4861   -5.5392   58.6892 H       1  ZINC000642096826    0.0900
     45 H45        -9.9669   -2.3986   57.9286 H       1  ZINC000642096826    0.0500
     46 H46       -11.4681   -1.4426   57.9050 H       1  ZINC000642096826    0.0900
     47 H47       -12.7731   -1.6518   60.2995 H       1  ZINC000642096826    0.1300
     48 H48       -12.3996   -0.9886   62.6383 H       1  ZINC000642096826    0.1400
     49 H49        -8.0378   -1.0220   63.8578 H       1  ZINC000642096826    0.4000
     50 H50        -9.0021   -0.9807   66.5522 H       1  ZINC000642096826    0.1400
     51 H51        -6.7743    0.0959   67.1124 H       1  ZINC000642096826    0.1000
     52 H52        -6.4952    0.4489   65.3239 H       1  ZINC000642096826    0.1000
     53 H53        -8.6059    1.8546   65.2719 H       1  ZINC000642096826    0.1000
     54 H54        -8.8851    1.5017   67.0605 H       1  ZINC000642096826    0.1100
     55 H55        -8.1647   -1.2664   62.0205 H       1  ZINC000642096826    0.1200
     56 H56        -8.5603   -1.9335   59.6864 H       1  ZINC000642096826    0.1300
@<TRIPOS>BOND
     1     1     2    1
     2     1    26    1
     3     1    27    1
     4     1    28    1
     5     2     3    1
     6     2    29    1
     7     2    30    1
     8     3     4    1
     9     3    31    1
    10     3    32    1
    11     4     5    1
    12     4     8   am
    13     5     6    1
    14     5    33    1
    15     5    34    1
    16     6     7    1
    17     6    35    1
    18     6    36    1
    19     7    37    1
    20     7    38    1
    21     7    39    1
    22     8     9    2
    23     8    10    1
    24    10    11    1
    25    10    40    1
    26    10    41    1
    27    11    12    1
    28    11    13    1
    29    12    42    1
    30    12    43    1
    31    12    44    1
    32    13    14    1
    33    13    45    1
    34    13    46    1
    35    14    25   ar
    36    14    15   ar
    37    15    16   ar
    38    15    47    1
    39    16    17   ar
    40    16    48    1
    41    17    18    1
    42    17    24   ar
    43    18    19    2
    44    18    20   am
    45    20    21    1
    46    20    49    1
    47    21    23    1
    48    21    22    1
    49    21    50    1
    50    22    23    1
    51    22    51    1
    52    22    52    1
    53    23    53    1
    54    23    54    1
    55    24    25   ar
    56    24    55    1
    57    25    56    1
@<TRIPOS>SUBSTRUCTURE
     1 ZINC000642096826        1 TEMP              0 ****  ****    0 ROOT


##########                                Name:    ZINC001109082135
##########                DOCK_Rotatable_Bonds:                   9
##########                         Heavy_Atoms:                  27
##########                    Molecular_Weight:             373.455
##########                DOCK_Rotatable_Bonds:                   9
##########                       Formal_Charge:          -0.0100003
##########                     HBond_Acceptors:                   8
##########                        HBond_Donors:                   3
##########                         Heavy_Atoms:                  27
##########                          Grid_Score:          -31.616817
##########                     Grid_vdw_energy:          -30.750914
##########                      Grid_es_energy:           -0.865905
##########           Internal_energy_repulsive:           19.406712

@<TRIPOS>MOLECULE
ZINC001109082135
 54 57 1 0 0
SMALL
USER_CHARGES


@<TRIPOS>ATOM
      1 C1        -17.3049   -3.0568   58.8626 C.3     1  ZINC001109082135   -0.1400
      2 C2        -16.5370   -3.0231   57.5397 C.3     1  ZINC001109082135   -0.1400
      3 C3        -15.4107   -4.0233   57.5870 C.2     1  ZINC001109082135    0.5100
      4 O4        -15.4466   -4.9397   58.3807 O.2     1  ZINC001109082135   -0.5400
      5 N5        -14.3639   -3.8996   56.7473 N.am    1  ZINC001109082135   -0.7200
      6 C6        -13.2682   -4.8710   56.7944 C.3     1  ZINC001109082135    0.1000
      7 C7        -12.2681   -4.4498   57.8402 C.2     1  ZINC001109082135    0.5100
      8 O8        -11.5787   -5.2824   58.3902 O.2     1  ZINC001109082135   -0.5300
      9 N9        -12.1398   -3.1479   58.1642 N.am    1  ZINC001109082135   -0.7100
     10 C10       -11.1664   -2.7383   59.1796 C.3     1  ZINC001109082135    0.1100
     11 H11       -11.2077   -3.4058   60.0403 H       1  ZINC001109082135    0.0900
     12 C12        -9.7379   -2.7055   58.5831 C.3     1  ZINC001109082135   -0.1600
     13 C13        -9.3133   -1.2137   58.7362 C.3     1  ZINC001109082135    0.0600
     14 H14        -8.2398   -1.0256   58.7169 H       1  ZINC001109082135    0.1300
     15 C15       -10.1508   -0.4439   57.6708 C.3     1  ZINC001109082135   -0.1200
     16 C16       -11.5867   -0.4727   58.2493 C.3     1  ZINC001109082135   -0.1100
     17 C17       -11.4168   -1.2634   59.6163 C.3     1  ZINC001109082135    0.0400
     18 H18       -12.2023   -1.1014   60.3544 H       1  ZINC001109082135    0.1200
     19 N19       -10.0234   -0.8415   60.0116 N.3     1  ZINC001109082135   -0.4800
     20 C20        -9.5374   -1.6316   61.1506 C.3     1  ZINC001109082135    0.0800
     21 C21        -9.6694   -0.8230   62.4156 C.2     1  ZINC001109082135    0.2000
     22 C22        -9.1466   -1.2921   63.5825 C.2     1  ZINC001109082135   -0.2900
     23 C23        -9.2874   -0.5102   64.7476 C.2     1  ZINC001109082135    0.5200
     24 O24        -8.8336   -0.8929   65.8132 O.2     1  ZINC001109082135   -0.5400
     25 N25        -9.9346    0.6713   64.6583 N.am    1  ZINC001109082135   -0.6300
     26 C26       -10.4292    1.0789   63.4729 C.2     1  ZINC001109082135    0.4300
     27 C27       -11.1490    2.4003   63.3904 C.3     1  ZINC001109082135   -0.1400
     28 C28       -12.5581    2.4010   62.7941 C.3     1  ZINC001109082135   -0.1400
     29 C29       -12.3639    2.6007   64.2986 C.3     1  ZINC001109082135   -0.1400
     30 N30       -10.2943    0.3568   62.3927 N.2     1  ZINC001109082135   -0.5300
     31 H31       -16.6302   -2.8058   59.6810 H       1  ZINC001109082135    0.0600
     32 H32       -18.1195   -2.3334   58.8284 H       1  ZINC001109082135    0.0600
     33 H33       -17.7123   -4.0554   59.0209 H       1  ZINC001109082135    0.0600
     34 H34       -17.2118   -3.2742   56.7214 H       1  ZINC001109082135    0.1000
     35 H35       -16.1296   -2.0245   57.3814 H       1  ZINC001109082135    0.1000
     36 H36       -14.3359   -3.1674   56.1117 H       1  ZINC001109082135    0.4100
     37 H37       -13.6651   -5.8544   57.0465 H       1  ZINC001109082135    0.1000
     38 H38       -12.7795   -4.9149   55.8212 H       1  ZINC001109082135    0.1000
     39 H39       -12.6920   -2.4822   57.7252 H       1  ZINC001109082135    0.4000
     40 H40        -9.0703   -3.3545   59.1500 H       1  ZINC001109082135    0.0800
     41 H41        -9.7541   -2.9940   57.5321 H       1  ZINC001109082135    0.0800
     42 H42        -9.7970    0.5825   57.5731 H       1  ZINC001109082135    0.0700
     43 H43       -10.1138   -0.9568   56.7097 H       1  ZINC001109082135    0.0700
     44 H44       -11.9447    0.5394   58.4381 H       1  ZINC001109082135    0.0700
     45 H45       -12.2616   -0.9999   57.5748 H       1  ZINC001109082135    0.0700
     46 H46       -10.1282   -2.5433   61.2389 H       1  ZINC001109082135    0.1000
     47 H47        -8.4905   -1.8908   60.9928 H       1  ZINC001109082135    0.0700
     48 H48        -8.6354   -2.2429   63.6149 H       1  ZINC001109082135    0.1600
     49 H49       -10.0439    1.2260   65.4466 H       1  ZINC001109082135    0.4200
     50 H50       -10.5187    3.2676   63.1942 H       1  ZINC001109082135    0.1300
     51 H51       -12.8550    3.2690   62.2054 H       1  ZINC001109082135    0.1100
     52 H52       -12.9643    1.4458   62.4615 H       1  ZINC001109082135    0.1100
     53 H53       -12.6425    1.7769   64.9558 H       1  ZINC001109082135    0.1100
     54 H54       -12.5331    3.6001   64.6995 H       1  ZINC001109082135    0.1100
@<TRIPOS>BOND
     1     1     2    1
     2     1    31    1
     3     1    32    1
     4     1    33    1
     5     2     3    1
     6     2    34    1
     7     2    35    1
     8     3     4    2
     9     3     5   am
    10     5     6    1
    11     5    36    1
    12     6     7    1
    13     6    37    1
    14     6    38    1
    15     7     8    2
    16     7     9   am
    17     9    10    1
    18     9    39    1
    19    10    11    1
    20    10    17    1
    21    10    12    1
    22    12    13    1
    23    12    40    1
    24    12    41    1
    25    13    14    1
    26    13    19    1
    27    13    15    1
    28    15    16    1
    29    15    42    1
    30    15    43    1
    31    16    17    1
    32    16    44    1
    33    16    45    1
    34    17    18    1
    35    17    19    1
    36    19    20    1
    37    20    21    1
    38    20    46    1
    39    20    47    1
    40    21    30    1
    41    21    22    2
    42    22    23    1
    43    22    48    1
    44    23    24    2
    45    23    25   am
    46    25    26    1
    47    25    49    1
    48    26    27    1
    49    26    30    2
    50    27    29    1
    51    27    28    1
    52    27    50    1
    53    28    29    1
    54    28    51    1
    55    28    52    1
    56    29    53    1
    57    29    54    1
@<TRIPOS>SUBSTRUCTURE
     1 ZINC001109082135        1 TEMP              0 ****  ****    0 ROOT


##########                                Name:    ZINC001143596311
##########                DOCK_Rotatable_Bonds:                   9
##########                         Heavy_Atoms:                  21
##########                    Molecular_Weight:             335.811
##########                DOCK_Rotatable_Bonds:                   9
##########                       Formal_Charge:          0.00999959
##########                     HBond_Acceptors:                   9
##########                        HBond_Donors:                   3
##########                         Heavy_Atoms:                  21
##########                          Grid_Score:          -31.612888
##########                     Grid_vdw_energy:          -28.923695
##########                      Grid_es_energy:           -2.689193
##########           Internal_energy_repulsive:           17.738951

@<TRIPOS>MOLECULE
ZINC001143596311
 39 39 1 0 0
SMALL
USER_CHARGES


@<TRIPOS>ATOM
      1 C1         -5.0859    1.3603   64.7146 C.3     1  ZINC001143596311    0.0400
      2 O2         -5.0350    1.1989   66.1336 O.3     1  ZINC001143596311   -0.2600
      3 N3         -6.1964    1.7443   66.8364 N.3     1  ZINC001143596311   -0.3700
      4 C4         -6.2781    3.2012   66.6665 C.3     1  ZINC001143596311    0.0000
      5 C5         -7.4352    1.0921   66.3914 C.3     1  ZINC001143596311    0.0400
      6 C6         -7.3512   -0.4091   66.6741 C.3     1  ZINC001143596311   -0.1300
      7 C7         -8.6416   -1.0883   66.2111 C.3     1  ZINC001143596311    0.1200
      8 N8         -8.8189   -0.8715   64.7731 N.am    1  ZINC001143596311   -0.7200
      9 C9         -9.8547   -0.1345   64.3255 C.2     1  ZINC001143596311    0.5600
     10 O10       -10.6409    0.3516   65.1149 O.2     1  ZINC001143596311   -0.5200
     11 C11       -10.0344    0.0829   62.8747 C.ar    1  ZINC001143596311   -0.1500
     12 C12       -10.4847    1.3167   62.4016 C.ar    1  ZINC001143596311   -0.0200
     13 C13       -10.6505    1.5136   61.0467 C.ar    1  ZINC001143596311   -0.1300
     14 C14       -10.3717    0.4903   60.1562 C.ar    1  ZINC001143596311    0.0700
     15 Cl15      -10.5828    0.7457   58.4521 Cl      1  ZINC001143596311   -0.0200
     16 C16        -9.9244   -0.7362   60.6198 C.ar    1  ZINC001143596311   -0.6800
     17 S17        -9.5717   -2.0319   59.4790 S.o2    1  ZINC001143596311    2.7000
     18 N18       -10.9574   -2.3185   58.6189 N.am    1  ZINC001143596311   -1.2500
     19 O19        -8.6275   -1.5075   58.5556 O.2     1  ZINC001143596311   -0.9400
     20 O20        -9.3337   -3.1974   60.2565 O.2     1  ZINC001143596311   -0.9500
     21 C21        -9.7489   -0.9430   61.9716 C.ar    1  ZINC001143596311    0.0500
     22 H22        -5.9669    0.8523   64.3225 H       1  ZINC001143596311    0.0400
     23 H23        -5.1399    2.4214   64.4713 H       1  ZINC001143596311    0.0500
     24 H24        -4.1895    0.9302   64.2676 H       1  ZINC001143596311    0.0900
     25 H25        -6.3676    3.4389   65.6065 H       1  ZINC001143596311    0.0400
     26 H26        -7.1502    3.5807   67.1989 H       1  ZINC001143596311    0.0900
     27 H27        -5.3771    3.6649   67.0681 H       1  ZINC001143596311    0.0800
     28 H28        -8.2828    1.5163   66.9297 H       1  ZINC001143596311    0.0500
     29 H29        -7.5667    1.2536   65.3215 H       1  ZINC001143596311    0.0900
     30 H30        -6.5039   -0.8335   66.1354 H       1  ZINC001143596311    0.0800
     31 H31        -7.2193   -0.5706   67.7439 H       1  ZINC001143596311    0.0800
     32 H32        -8.5818   -2.1579   66.4126 H       1  ZINC001143596311    0.0800
     33 H33        -9.4889   -0.6641   66.7497 H       1  ZINC001143596311    0.0800
     34 H34        -8.1908   -1.2583   64.1433 H       1  ZINC001143596311    0.4000
     35 H35       -10.7032    2.1152   63.0952 H       1  ZINC001143596311    0.1500
     36 H36       -10.9989    2.4676   60.6794 H       1  ZINC001143596311    0.1600
     37 H37       -11.3553   -1.6094   58.0898 H       1  ZINC001143596311    0.4200
     38 H38       -11.3713   -3.1954   58.6440 H       1  ZINC001143596311    0.4200
     39 H39        -9.4003   -1.8996   62.3318 H       1  ZINC001143596311    0.1700
@<TRIPOS>BOND
     1     1     2    1
     2     1    22    1
     3     1    23    1
     4     1    24    1
     5     2     3    1
     6     3     4    1
     7     3     5    1
     8     4    25    1
     9     4    26    1
    10     4    27    1
    11     5     6    1
    12     5    28    1
    13     5    29    1
    14     6     7    1
    15     6    30    1
    16     6    31    1
    17     7     8    1
    18     7    32    1
    19     7    33    1
    20     8     9   am
    21     8    34    1
    22     9    10    2
    23     9    11    1
    24    11    21   ar
    25    11    12   ar
    26    12    13   ar
    27    12    35    1
    28    13    14   ar
    29    13    36    1
    30    14    15    1
    31    14    16   ar
    32    16    17    1
    33    16    21   ar
    34    17    18   am
    35    17    19    2
    36    17    20    2
    37    18    37    1
    38    18    38    1
    39    21    39    1
@<TRIPOS>SUBSTRUCTURE
     1 ZINC001143596311        1 TEMP              0 ****  ****    0 ROOT


##########                                Name:    ZINC000538774026
##########                DOCK_Rotatable_Bonds:                  10
##########                         Heavy_Atoms:                  29
##########                    Molecular_Weight:             414.496
##########                DOCK_Rotatable_Bonds:                  10
##########                       Formal_Charge:            0.049999
##########                     HBond_Acceptors:                   9
##########                        HBond_Donors:                   2
##########                         Heavy_Atoms:                  29
##########                          Grid_Score:          -31.607430
##########                     Grid_vdw_energy:          -28.884335
##########                      Grid_es_energy:           -2.723096
##########           Internal_energy_repulsive:           30.600653

@<TRIPOS>MOLECULE
ZINC000538774026
 61 62 1 0 0
SMALL
USER_CHARGES


@<TRIPOS>ATOM
      1 C1          3.7131    2.7980   55.7078 C.3     1  ZINC000538774026   -0.1500
      2 C2          4.9998    3.5681   55.4037 C.3     1  ZINC000538774026   -0.1100
      3 C3          5.9564    3.4524   56.5921 C.3     1  ZINC000538774026   -0.1400
      4 C4          5.6628    2.9807   54.1562 C.3     1  ZINC000538774026    0.1400
      5 N5          4.7116    3.0008   53.0422 N.pl3   1  ZINC000538774026   -0.3400
      6 N6          4.2179    4.1436   52.4001 N.2     1  ZINC000538774026   -0.2500
      7 C7          3.3945    3.7634   51.4571 C.2     1  ZINC000538774026    0.0500
      8 C8          3.3330    2.3624   51.4635 C.2     1  ZINC000538774026    0.0800
      9 N9          2.5590    1.5622   50.6006 N.am    1  ZINC000538774026   -0.6600
     10 C10         1.2741    1.8854   50.3535 C.2     1  ZINC000538774026    0.7100
     11 O11         0.7836    2.8687   50.8742 O.2     1  ZINC000538774026   -0.5700
     12 N12         0.5330    1.1188   49.5292 N.am    1  ZINC000538774026   -0.7300
     13 C13        -0.8642    1.4691   49.2620 C.3     1  ZINC000538774026    0.1600
     14 C14        -0.9168    2.6631   48.3065 C.3     1  ZINC000538774026   -0.1300
     15 C15        -0.2229    2.2962   46.9932 C.3     1  ZINC000538774026   -0.1000
     16 C16        -0.9354    1.1015   46.3563 C.3     1  ZINC000538774026   -0.0800
     17 C17        -0.2518    0.7402   45.0626 C.2     1  ZINC000538774026    0.4700
     18 O18        -0.8134    0.9286   44.0096 O.2     1  ZINC000538774026   -0.5000
     19 O19         0.9809    0.2093   45.0804 O.3     1  ZINC000538774026   -0.3500
     20 C20         2.0000    0.8827   44.2954 C.3     1  ZINC000538774026    0.1200
     21 C21         1.8968    0.4368   42.8355 C.3     1  ZINC000538774026   -0.1800
     22 C22         1.7934    2.3962   44.3823 C.3     1  ZINC000538774026   -0.1400
     23 C23         3.3837    0.5247   44.8414 C.3     1  ZINC000538774026   -0.1800
     24 C24        -0.8827   -0.0924   47.3117 C.3     1  ZINC000538774026   -0.1100
     25 C25        -1.5767    0.2744   48.6249 C.3     1  ZINC000538774026   -0.1300
     26 C26         4.1565    1.9142   52.4450 C.2     1  ZINC000538774026   -0.0500
     27 C27         4.4031    0.4735   52.8116 C.3     1  ZINC000538774026    0.3500
     28 F28         3.4318   -0.3337   52.2098 F       1  ZINC000538774026   -0.1900
     29 F29         5.6716    0.0890   52.3638 F       1  ZINC000538774026   -0.1900
     30 H30         3.2407    3.2164   56.5966 H       1  ZINC000538774026    0.0600
     31 H31         3.0317    2.8804   54.8611 H       1  ZINC000538774026    0.0600
     32 H32         3.9504    1.7486   55.8823 H       1  ZINC000538774026    0.0600
     33 H33         4.7625    4.6175   55.2291 H       1  ZINC000538774026    0.0800
     34 H34         6.1937    2.4029   56.7666 H       1  ZINC000538774026    0.0600
     35 H35         6.8731    4.0009   56.3754 H       1  ZINC000538774026    0.0600
     36 H36         5.4840    3.8707   57.4809 H       1  ZINC000538774026    0.0600
     37 H37         6.5390    3.5749   53.8965 H       1  ZINC000538774026    0.1000
     38 H38         5.9668    1.9533   54.3558 H       1  ZINC000538774026    0.1000
     39 H39         2.8541    4.4169   50.7882 H       1  ZINC000538774026    0.2100
     40 H40         2.9507    0.7786   50.1843 H       1  ZINC000538774026    0.4100
     41 H41         0.9247    0.3351   49.1129 H       1  ZINC000538774026    0.4000
     42 H42        -1.3586    1.7304   50.1975 H       1  ZINC000538774026    0.1000
     43 H43        -1.9563    2.9237   48.1077 H       1  ZINC000538774026    0.0800
     44 H44        -0.4092    3.5142   48.7603 H       1  ZINC000538774026    0.0800
     45 H45        -0.2604    3.1468   46.3126 H       1  ZINC000538774026    0.0700
     46 H46         0.8167    2.0356   47.1920 H       1  ZINC000538774026    0.0700
     47 H47        -1.9748    1.3622   46.1574 H       1  ZINC000538774026    0.1100
     48 H48         0.9109    0.6918   42.4466 H       1  ZINC000538774026    0.0600
     49 H49         2.6618    0.9423   42.2462 H       1  ZINC000538774026    0.0700
     50 H50         2.0439   -0.6414   42.7736 H       1  ZINC000538774026    0.0800
     51 H51         1.8669    2.7139   45.4223 H       1  ZINC000538774026    0.0700
     52 H52         2.5584    2.9017   43.7929 H       1  ZINC000538774026    0.0800
     53 H53         0.8076    2.6513   43.9933 H       1  ZINC000538774026    0.0700
     54 H54         3.5309   -0.5535   44.7796 H       1  ZINC000538774026    0.0800
     55 H55         4.1488    1.0302   44.2521 H       1  ZINC000538774026    0.0700
     56 H56         3.4573    0.8424   45.8815 H       1  ZINC000538774026    0.0600
     57 H57        -1.3903   -0.9435   46.8578 H       1  ZINC000538774026    0.0800
     58 H58         0.1569   -0.3530   47.5105 H       1  ZINC000538774026    0.0600
     59 H59        -1.5391   -0.5762   49.3055 H       1  ZINC000538774026    0.0800
     60 H60        -2.6162    0.5351   48.4261 H       1  ZINC000538774026    0.0900
     61 H61         4.3502    0.3598   53.8943 H       1  ZINC000538774026    0.1300
@<TRIPOS>BOND
     1     1     2    1
     2     1    30    1
     3     1    31    1
     4     1    32    1
     5     2     3    1
     6     2     4    1
     7     2    33    1
     8     3    34    1
     9     3    35    1
    10     3    36    1
    11     4     5    1
    12     4    37    1
    13     4    38    1
    14     5    26    1
    15     5     6    1
    16     6     7    2
    17     7     8    1
    18     7    39    1
    19     8     9    1
    20     8    26    2
    21     9    10   am
    22     9    40    1
    23    10    11    2
    24    10    12   am
    25    12    13    1
    26    12    41    1
    27    13    25    1
    28    13    14    1
    29    13    42    1
    30    14    15    1
    31    14    43    1
    32    14    44    1
    33    15    16    1
    34    15    45    1
    35    15    46    1
    36    16    17    1
    37    16    24    1
    38    16    47    1
    39    17    18    2
    40    17    19    1
    41    19    20    1
    42    20    21    1
    43    20    22    1
    44    20    23    1
    45    21    48    1
    46    21    49    1
    47    21    50    1
    48    22    51    1
    49    22    52    1
    50    22    53    1
    51    23    54    1
    52    23    55    1
    53    23    56    1
    54    24    25    1
    55    24    57    1
    56    24    58    1
    57    25    59    1
    58    25    60    1
    59    26    27    1
    60    27    28    1
    61    27    29    1
    62    27    61    1
@<TRIPOS>SUBSTRUCTURE
     1 ZINC000538774026        1 TEMP              0 ****  ****    0 ROOT


##########                                Name:    ZINC000771225867
##########                DOCK_Rotatable_Bonds:                   9
##########                         Heavy_Atoms:                  23
##########                    Molecular_Weight:             355.802
##########                DOCK_Rotatable_Bonds:                   9
##########                       Formal_Charge:        -3.12924e-07
##########                     HBond_Acceptors:                   9
##########                        HBond_Donors:                   3
##########                         Heavy_Atoms:                  23
##########                          Grid_Score:          -31.599030
##########                     Grid_vdw_energy:          -25.609730
##########                      Grid_es_energy:           -5.989299
##########           Internal_energy_repulsive:            9.010874

@<TRIPOS>MOLECULE
ZINC000771225867
 37 38 1 0 0
SMALL
USER_CHARGES


@<TRIPOS>ATOM
      1 C1          5.2760    1.8260   54.9981 C.3     1  ZINC000771225867    0.0400
      2 O2          4.3577    1.5213   53.9464 O.3     1  ZINC000771225867   -0.3600
      3 C3          3.5023    2.4980   53.5777 C.2     1  ZINC000771225867    0.5500
      4 O4          3.5353    3.5787   54.1364 O.2     1  ZINC000771225867   -0.4900
      5 C5          2.5668    2.2653   52.5414 C.2     1  ZINC000771225867   -0.3400
      6 C6          1.6444    3.1623   52.0694 C.2     1  ZINC000771225867    0.2700
      7 Cl7         1.4840    4.7730   52.6968 Cl      1  ZINC000771225867    0.0400
      8 N8          0.8955    2.6953   51.1026 N.2     1  ZINC000771225867   -0.5500
      9 C9          1.1124    1.4698   50.7183 C.2     1  ZINC000771225867    0.3400
     10 N10         0.4172    0.8267   49.7175 N.pl3   1  ZINC000771225867   -0.6700
     11 C11        -0.6708    1.5174   49.0209 C.3     1  ZINC000771225867    0.1700
     12 C12        -0.7381    1.0377   47.5939 C.ar    1  ZINC000771225867   -0.0800
     13 C13        -1.0419   -0.2835   47.3230 C.ar    1  ZINC000771225867   -0.1300
     14 C14        -1.1044   -0.7269   46.0147 C.ar    1  ZINC000771225867   -0.0800
     15 C15        -0.8633    0.1498   44.9749 C.ar    1  ZINC000771225867   -0.2000
     16 C16        -0.5582    1.4764   45.2440 C.ar    1  ZINC000771225867    0.1300
     17 O17        -0.3210    2.3410   44.2227 O.3     1  ZINC000771225867   -0.2900
     18 C18         0.8610    3.1391   44.3097 C.3     1  ZINC000771225867    0.0400
     19 C19         1.2842    3.5626   42.9267 C.2     1  ZINC000771225867    0.5200
     20 N20         1.9321    4.7309   42.7483 N.am    1  ZINC000771225867   -0.8500
     21 O21         1.0416    2.8521   41.9742 O.2     1  ZINC000771225867   -0.5200
     22 C22        -0.5016    1.9199   46.5571 C.ar    1  ZINC000771225867   -0.1200
     23 S23         2.3848    0.7734   51.6220 S.3     1  ZINC000771225867    0.2200
     24 H24         5.9023    2.6673   54.7013 H       1  ZINC000771225867    0.0600
     25 H25         4.7220    2.0860   55.9002 H       1  ZINC000771225867    0.0600
     26 H26         5.9040    0.9572   55.1952 H       1  ZINC000771225867    0.1000
     27 H27         0.6481   -0.0835   49.4742 H       1  ZINC000771225867    0.4200
     28 H28        -1.6157    1.3041   49.5208 H       1  ZINC000771225867    0.0900
     29 H29        -0.4869    2.5917   49.0347 H       1  ZINC000771225867    0.0900
     30 H30        -1.2303   -0.9706   48.1346 H       1  ZINC000771225867    0.1300
     31 H31        -1.3417   -1.7595   45.8057 H       1  ZINC000771225867    0.1300
     32 H32        -0.9120   -0.1971   43.9532 H       1  ZINC000771225867    0.1300
     33 H33         0.6589    4.0231   44.9145 H       1  ZINC000771225867    0.1000
     34 H34         1.6590    2.5576   44.7716 H       1  ZINC000771225867    0.1000
     35 H35         2.2054    5.0029   41.8583 H       1  ZINC000771225867    0.4000
     36 H36         2.1250    5.2997   43.5100 H       1  ZINC000771225867    0.4100
     37 H37        -0.2643    2.9519   46.7693 H       1  ZINC000771225867    0.1400
@<TRIPOS>BOND
     1     1     2    1
     2     1    24    1
     3     1    25    1
     4     1    26    1
     5     2     3    1
     6     3     4    2
     7     3     5    1
     8     5    23    1
     9     5     6    2
    10     6     7    1
    11     6     8    1
    12     8     9    2
    13     9    10    1
    14     9    23    1
    15    10    11    1
    16    10    27    1
    17    11    12    1
    18    11    28    1
    19    11    29    1
    20    12    22   ar
    21    12    13   ar
    22    13    14   ar
    23    13    30    1
    24    14    15   ar
    25    14    31    1
    26    15    16   ar
    27    15    32    1
    28    16    17    1
    29    16    22   ar
    30    17    18    1
    31    18    19    1
    32    18    33    1
    33    18    34    1
    34    19    20   am
    35    19    21    2
    36    20    35    1
    37    20    36    1
    38    22    37    1
@<TRIPOS>SUBSTRUCTURE
     1 ZINC000771225867        1 TEMP              0 ****  ****    0 ROOT


##########                                Name:    ZINC000772422035
##########                DOCK_Rotatable_Bonds:                  10
##########                         Heavy_Atoms:                  25
##########                    Molecular_Weight:             348.399
##########                DOCK_Rotatable_Bonds:                  10
##########                       Formal_Charge:          0.00999987
##########                     HBond_Acceptors:                   7
##########                        HBond_Donors:                   0
##########                         Heavy_Atoms:                  25
##########                          Grid_Score:          -31.591396
##########                     Grid_vdw_energy:          -29.468157
##########                      Grid_es_energy:           -2.123240
##########           Internal_energy_repulsive:           16.534662

@<TRIPOS>MOLECULE
ZINC000772422035
 49 50 1 0 0
SMALL
USER_CHARGES


@<TRIPOS>ATOM
      1 C1        -15.3869   -6.1783   54.3343 C.3     1  ZINC000772422035    0.0300
      2 O2        -15.6980   -6.5159   55.6875 O.3     1  ZINC000772422035   -0.3900
      3 C3        -14.5615   -6.5556   56.5527 C.3     1  ZINC000772422035    0.0600
      4 C4        -13.8975   -5.1777   56.5860 C.3     1  ZINC000772422035    0.0700
      5 O5        -12.7643   -5.2159   57.4558 O.3     1  ZINC000772422035   -0.3000
      6 C6        -12.0721   -4.0602   57.6167 C.ar    1  ZINC000772422035    0.3300
      7 C7        -10.9269   -4.0481   58.4022 C.ar    1  ZINC000772422035   -0.1700
      8 C8        -10.2297   -2.8625   58.5582 C.ar    1  ZINC000772422035   -0.0200
      9 C9         -8.9822   -2.8073   59.4018 C.3     1  ZINC000772422035    0.1100
     10 O10        -9.0400   -1.6494   60.2760 O.3     1  ZINC000772422035   -0.3500
     11 C11        -9.8737   -1.7193   61.3257 C.2     1  ZINC000772422035    0.4700
     12 O12       -10.4258   -2.7610   61.5903 O.2     1  ZINC000772422035   -0.5000
     13 C13       -10.1210   -0.4986   62.1740 C.3     1  ZINC000772422035   -0.1100
     14 C14       -11.3277    0.2667   61.6269 C.3     1  ZINC000772422035    0.0000
     15 H15       -11.7781   -0.2999   60.8119 H       1  ZINC000772422035    0.1000
     16 C16       -10.8732    1.6325   61.1085 C.3     1  ZINC000772422035   -0.1500
     17 C17       -12.3413    0.4583   62.7256 C.2     1  ZINC000772422035   -0.2000
     18 C18       -12.1871    1.1225   63.8960 C.2     1  ZINC000772422035   -0.0200
     19 C19       -10.9466    1.8320   64.3741 C.3     1  ZINC000772422035   -0.0800
     20 O20       -13.3558    1.0239   64.5450 O.3     1  ZINC000772422035    0.1000
     21 N21       -14.1662    0.3920   63.9078 N.2     1  ZINC000772422035   -0.3600
     22 C22       -13.6751   -0.0084   62.7706 C.2     1  ZINC000772422035    0.0300
     23 C23       -14.3845   -0.8174   61.7156 C.3     1  ZINC000772422035   -0.0800
     24 C24       -10.7055   -1.7258   57.9197 C.ar    1  ZINC000772422035   -0.1900
     25 C25       -11.8514   -1.8110   57.1537 C.ar    1  ZINC000772422035    0.1400
     26 N26       -12.4914   -2.9569   57.0194 N.ar    1  ZINC000772422035   -0.5300
     27 H27       -16.3021   -6.1694   53.7423 H       1  ZINC000772422035    0.0900
     28 H28       -14.9243   -5.1919   54.3031 H       1  ZINC000772422035    0.0400
     29 H29       -14.6968   -6.9163   53.9251 H       1  ZINC000772422035    0.0400
     30 H30       -14.8799   -6.8299   57.5585 H       1  ZINC000772422035    0.0600
     31 H31       -13.8492   -7.2935   56.1833 H       1  ZINC000772422035    0.0700
     32 H32       -13.5749   -4.9055   55.5809 H       1  ZINC000772422035    0.0800
     33 H33       -14.6111   -4.4392   56.9509 H       1  ZINC000772422035    0.0800
     34 H34       -10.5851   -4.9515   58.8852 H       1  ZINC000772422035    0.1400
     35 H35        -8.9100   -3.7134   60.0034 H       1  ZINC000772422035    0.0900
     36 H36        -8.1088   -2.7305   58.7543 H       1  ZINC000772422035    0.0900
     37 H37       -10.3198   -0.8041   63.2012 H       1  ZINC000772422035    0.1100
     38 H38        -9.2415    0.1449   62.1501 H       1  ZINC000772422035    0.1100
     39 H39       -10.3109    2.1479   61.8871 H       1  ZINC000772422035    0.0600
     40 H40       -10.2392    1.4960   60.2324 H       1  ZINC000772422035    0.0800
     41 H41       -11.7457    2.2266   60.8366 H       1  ZINC000772422035    0.0600
     42 H42       -10.9245    2.8415   63.9636 H       1  ZINC000772422035    0.0900
     43 H43       -10.9538    1.8826   65.4629 H       1  ZINC000772422035    0.0900
     44 H44       -10.0643    1.2851   64.0417 H       1  ZINC000772422035    0.0900
     45 H45       -14.8147   -0.1468   60.9717 H       1  ZINC000772422035    0.0800
     46 H46       -13.6737   -1.4878   61.2326 H       1  ZINC000772422035    0.0800
     47 H47       -15.1785   -1.4028   62.1793 H       1  ZINC000772422035    0.0800
     48 H48       -10.1855   -0.7847   58.0210 H       1  ZINC000772422035    0.1400
     49 H49       -12.2258   -0.9294   56.6546 H       1  ZINC000772422035    0.1700
@<TRIPOS>BOND
     1     1     2    1
     2     1    27    1
     3     1    28    1
     4     1    29    1
     5     2     3    1
     6     3     4    1
     7     3    30    1
     8     3    31    1
     9     4     5    1
    10     4    32    1
    11     4    33    1
    12     5     6    1
    13     6    26   ar
    14     6     7   ar
    15     7     8   ar
    16     7    34    1
    17     8     9    1
    18     8    24   ar
    19     9    10    1
    20     9    35    1
    21     9    36    1
    22    10    11    1
    23    11    12    2
    24    11    13    1
    25    13    14    1
    26    13    37    1
    27    13    38    1
    28    14    15    1
    29    14    16    1
    30    14    17    1
    31    16    39    1
    32    16    40    1
    33    16    41    1
    34    17    22    1
    35    17    18    2
    36    18    19    1
    37    18    20    1
    38    19    42    1
    39    19    43    1
    40    19    44    1
    41    20    21    1
    42    21    22    2
    43    22    23    1
    44    23    45    1
    45    23    46    1
    46    23    47    1
    47    24    25   ar
    48    24    48    1
    49    25    26   ar
    50    25    49    1
@<TRIPOS>SUBSTRUCTURE
     1 ZINC000772422035        1 TEMP              0 ****  ****    0 ROOT


##########                                Name:    ZINC001061022329
##########                DOCK_Rotatable_Bonds:                   7
##########                         Heavy_Atoms:                  27
##########                    Molecular_Weight:             374.523
##########                DOCK_Rotatable_Bonds:                   7
##########                       Formal_Charge:           0.0800005
##########                     HBond_Acceptors:                   5
##########                        HBond_Donors:                   0
##########                         Heavy_Atoms:                  27
##########                          Grid_Score:          -31.588144
##########                     Grid_vdw_energy:          -30.612583
##########                      Grid_es_energy:           -0.975562
##########           Internal_energy_repulsive:           24.606199

@<TRIPOS>MOLECULE
ZINC001061022329
 61 64 1 0 0
SMALL
USER_CHARGES


@<TRIPOS>ATOM
      1 C1        -17.8190   -7.6116   49.3281 C.3     1  ZINC001061022329   -0.1500
      2 C2        -17.0870   -7.9105   50.6380 C.3     1  ZINC001061022329   -0.1200
      3 C3        -16.9606   -6.6242   51.4567 C.3     1  ZINC001061022329    0.0800
      4 H4        -16.3989   -5.8843   50.8864 H       1  ZINC001061022329    0.0600
      5 C5        -18.3557   -6.0777   51.7665 C.3     1  ZINC001061022329   -0.1800
      6 O6        -16.2758   -6.9031   52.6795 O.3     1  ZINC001061022329   -0.3500
      7 C7        -16.1041   -5.7623   53.5228 C.3     1  ZINC001061022329    0.0500
      8 C8        -15.3260   -6.1582   54.7512 C.2     1  ZINC001061022329    0.5200
      9 O9        -14.8552   -7.2726   54.8378 O.2     1  ZINC001061022329   -0.5100
     10 N10       -15.1532   -5.2740   55.7534 N.am    1  ZINC001061022329   -0.6100
     11 C11       -15.7255   -3.9243   55.6629 C.3     1  ZINC001061022329    0.1100
     12 C12       -14.6019   -2.8983   55.8529 C.3     1  ZINC001061022329   -0.1200
     13 C13       -13.8418   -3.2216   57.1369 C.3     1  ZINC001061022329   -0.0900
     14 C14       -12.8370   -2.1360   57.5466 C.3     1  ZINC001061022329    0.1200
     15 N15       -13.3290   -2.3462   58.9229 N.am    1  ZINC001061022329   -0.6400
     16 C16       -12.8119   -2.1449   60.1512 C.2     1  ZINC001061022329    0.5400
     17 O17       -13.4641   -2.4190   61.1362 O.2     1  ZINC001061022329   -0.5300
     18 C18       -11.4231   -1.5790   60.3004 C.3     1  ZINC001061022329   -0.0900
     19 H19       -10.8921   -1.6652   59.3524 H       1  ZINC001061022329    0.1000
     20 C20       -10.6686   -2.3580   61.3801 C.3     1  ZINC001061022329   -0.1000
     21 C21       -10.2531   -1.4030   62.5065 C.3     1  ZINC001061022329   -0.0600
     22 H22        -9.7587   -1.9468   63.3114 H       1  ZINC001061022329    0.0800
     23 C23       -11.5076   -0.7086   63.0154 C.2     1  ZINC001061022329   -0.1800
     24 C24       -12.1639   -0.0311   62.0764 C.2     1  ZINC001061022329   -0.1300
     25 C25       -11.5139   -0.1015   60.7029 C.3     1  ZINC001061022329   -0.0400
     26 H26       -12.0861    0.4730   59.9746 H       1  ZINC001061022329    0.0900
     27 C27       -10.0879    0.4515   60.8331 C.3     1  ZINC001061022329   -0.1100
     28 C28        -9.3193   -0.3377   61.9157 C.3     1  ZINC001061022329   -0.1100
     29 C29       -14.6146   -2.8645   58.4142 C.3     1  ZINC001061022329    0.1100
     30 C30       -13.2577   -4.6320   57.1509 C.3     1  ZINC001061022329   -0.1100
     31 C31       -14.3951   -5.6483   56.9545 C.3     1  ZINC001061022329    0.1100
     32 H32       -18.8129   -7.2218   49.5481 H       1  ZINC001061022329    0.0500
     33 H33       -17.2566   -6.8720   48.7583 H       1  ZINC001061022329    0.0600
     34 H34       -17.9090   -8.5280   48.7449 H       1  ZINC001061022329    0.0600
     35 H35       -17.6494   -8.6501   51.2079 H       1  ZINC001061022329    0.0800
     36 H36       -16.0931   -8.3004   50.4181 H       1  ZINC001061022329    0.0700
     37 H37       -18.2656   -5.1613   52.3497 H       1  ZINC001061022329    0.0600
     38 H38       -18.8779   -5.8649   50.8338 H       1  ZINC001061022329    0.0700
     39 H39       -18.9173   -6.8176   52.3368 H       1  ZINC001061022329    0.0700
     40 H40       -15.5594   -4.9889   52.9813 H       1  ZINC001061022329    0.0800
     41 H41       -17.0807   -5.3792   53.8191 H       1  ZINC001061022329    0.0800
     42 H42       -16.1841   -3.7868   54.6836 H       1  ZINC001061022329    0.0900
     43 H43       -16.4763   -3.7925   56.4421 H       1  ZINC001061022329    0.0800
     44 H44       -13.9195   -2.9439   55.0042 H       1  ZINC001061022329    0.0800
     45 H45       -15.0298   -1.8984   55.9246 H       1  ZINC001061022329    0.0800
     46 H46       -11.7956   -2.4240   57.4030 H       1  ZINC001061022329    0.0800
     47 H47       -13.0666   -1.1496   57.1434 H       1  ZINC001061022329    0.0900
     48 H48       -11.3149   -3.1370   61.7845 H       1  ZINC001061022329    0.0700
     49 H49        -9.7796   -2.8141   60.9444 H       1  ZINC001061022329    0.0700
     50 H50       -11.8352   -0.7607   64.0432 H       1  ZINC001061022329    0.1200
     51 H51       -13.0737    0.5172   62.2715 H       1  ZINC001061022329    0.1200
     52 H52        -9.5693    0.3463   59.8802 H       1  ZINC001061022329    0.0700
     53 H53       -10.1308    1.5052   61.1086 H       1  ZINC001061022329    0.0700
     54 H54        -9.0026    0.3436   62.7054 H       1  ZINC001061022329    0.0700
     55 H55        -8.4433   -0.8078   61.4690 H       1  ZINC001061022329    0.0700
     56 H56       -15.3725   -2.0946   58.2689 H       1  ZINC001061022329    0.0900
     57 H57       -14.9862   -3.7315   58.9603 H       1  ZINC001061022329    0.0800
     58 H58       -12.5317   -4.7339   56.3444 H       1  ZINC001061022329    0.0800
     59 H59       -12.7689   -4.8146   58.1079 H       1  ZINC001061022329    0.0800
     60 H60       -15.0505   -5.6360   57.8254 H       1  ZINC001061022329    0.0700
     61 H61       -13.9755   -6.6458   56.8245 H       1  ZINC001061022329    0.1000
@<TRIPOS>BOND
     1     1     2    1
     2     1    32    1
     3     1    33    1
     4     1    34    1
     5     2     3    1
     6     2    35    1
     7     2    36    1
     8     3     4    1
     9     3     5    1
    10     3     6    1
    11     5    37    1
    12     5    38    1
    13     5    39    1
    14     6     7    1
    15     7     8    1
    16     7    40    1
    17     7    41    1
    18     8     9    2
    19     8    10   am
    20    10    31    1
    21    10    11    1
    22    11    12    1
    23    11    42    1
    24    11    43    1
    25    12    13    1
    26    12    44    1
    27    12    45    1
    28    13    29    1
    29    13    14    1
    30    13    30    1
    31    14    15    1
    32    14    46    1
    33    14    47    1
    34    15    16   am
    35    15    29    1
    36    16    17    2
    37    16    18    1
    38    18    19    1
    39    18    25    1
    40    18    20    1
    41    20    21    1
    42    20    48    1
    43    20    49    1
    44    21    22    1
    45    21    28    1
    46    21    23    1
    47    23    24    2
    48    23    50    1
    49    24    25    1
    50    24    51    1
    51    25    26    1
    52    25    27    1
    53    27    28    1
    54    27    52    1
    55    27    53    1
    56    28    54    1
    57    28    55    1
    58    29    56    1
    59    29    57    1
    60    30    31    1
    61    30    58    1
    62    30    59    1
    63    31    60    1
    64    31    61    1
@<TRIPOS>SUBSTRUCTURE
     1 ZINC001061022329        1 TEMP              0 ****  ****    0 ROOT


##########                                Name:    ZINC000970996691
##########                DOCK_Rotatable_Bonds:                   7
##########                         Heavy_Atoms:                  24
##########                    Molecular_Weight:             334.462
##########                DOCK_Rotatable_Bonds:                   7
##########                       Formal_Charge:          -0.0199999
##########                     HBond_Acceptors:                   6
##########                        HBond_Donors:                   0
##########                         Heavy_Atoms:                  24
##########                          Grid_Score:          -31.545799
##########                     Grid_vdw_energy:          -30.609591
##########                      Grid_es_energy:           -0.936210
##########           Internal_energy_repulsive:           13.761559

@<TRIPOS>MOLECULE
ZINC000970996691
 54 56 1 0 0
SMALL
USER_CHARGES


@<TRIPOS>ATOM
      1 C1        -17.3512   -6.3200   49.6423 C.3     1  ZINC000970996691   -0.1500
      2 C2        -17.1117   -5.8141   51.0661 C.3     1  ZINC000970996691   -0.1200
      3 C3        -15.8676   -6.4909   51.6453 C.3     1  ZINC000970996691   -0.0300
      4 C4        -15.6320   -5.9931   53.0480 C.2     1  ZINC000970996691    0.1800
      5 N5        -15.9517   -4.8129   53.5218 N.2     1  ZINC000970996691   -0.4700
      6 C6        -15.5539   -4.8187   54.8066 C.2     1  ZINC000970996691    0.1800
      7 C7        -15.6983   -3.6861   55.7901 C.3     1  ZINC000970996691    0.1500
      8 N8        -14.5633   -3.6997   56.7226 N.3     1  ZINC000970996691   -0.5200
      9 C9        -13.3105   -3.3659   56.0319 C.3     1  ZINC000970996691    0.0200
     10 C10       -14.7995   -2.7913   57.8527 C.3     1  ZINC000970996691    0.0700
     11 H11       -15.0870   -1.8004   57.5013 H       1  ZINC000970996691    0.0600
     12 C12       -15.8672   -3.3705   58.8180 C.3     1  ZINC000970996691   -0.1300
     13 C13       -15.4996   -2.7222   60.1693 C.3     1  ZINC000970996691    0.1000
     14 N14       -14.0865   -2.3240   60.0922 N.am    1  ZINC000970996691   -0.6200
     15 C15       -13.3906   -1.7046   61.0662 C.2     1  ZINC000970996691    0.5300
     16 O16       -13.9309   -1.4296   62.1166 O.2     1  ZINC000970996691   -0.5300
     17 C17       -11.9411   -1.3536   60.8499 C.3     1  ZINC000970996691   -0.1000
     18 C18       -11.4726   -0.4130   61.9619 C.3     1  ZINC000970996691   -0.1100
     19 C19       -10.0009   -0.0567   61.7423 C.3     1  ZINC000970996691   -0.1200
     20 C20        -9.1582   -1.3334   61.7655 C.3     1  ZINC000970996691   -0.1200
     21 C21        -9.6266   -2.2741   60.6534 C.3     1  ZINC000970996691   -0.1200
     22 C22       -11.0983   -2.6304   60.8731 C.3     1  ZINC000970996691   -0.1000
     23 C23       -13.5557   -2.7149   58.7730 C.3     1  ZINC000970996691    0.1200
     24 N24       -15.0225   -5.9805   55.0442 N.2     1  ZINC000970996691   -0.3800
     25 O25       -15.0628   -6.6721   54.0485 O.3     1  ZINC000970996691    0.0800
     26 H26       -16.4867   -6.0830   49.0221 H       1  ZINC000970996691    0.0600
     27 H27       -17.5002   -7.3997   49.6605 H       1  ZINC000970996691    0.0600
     28 H28       -18.2374   -5.8379   49.2296 H       1  ZINC000970996691    0.0600
     29 H29       -16.9626   -4.7345   51.0479 H       1  ZINC000970996691    0.0700
     30 H30       -17.9761   -6.0511   51.6863 H       1  ZINC000970996691    0.0700
     31 H31       -16.0165   -7.5705   51.6631 H       1  ZINC000970996691    0.1100
     32 H32       -15.0031   -6.2535   51.0254 H       1  ZINC000970996691    0.1000
     33 H33       -15.7157   -2.7381   55.2526 H       1  ZINC000970996691    0.0700
     34 H34       -16.6277   -3.8050   56.3472 H       1  ZINC000970996691    0.1100
     35 H35       -13.3911   -2.3710   55.5939 H       1  ZINC000970996691    0.0300
     36 H36       -12.4866   -3.3832   56.7453 H       1  ZINC000970996691    0.0800
     37 H37       -13.1243   -4.0959   55.2440 H       1  ZINC000970996691    0.0700
     38 H38       -16.8691   -3.0737   58.5078 H       1  ZINC000970996691    0.0800
     39 H39       -15.7862   -4.4560   58.8762 H       1  ZINC000970996691    0.0900
     40 H40       -16.1231   -1.8450   60.3414 H       1  ZINC000970996691    0.0700
     41 H41       -15.6383   -3.4423   60.9759 H       1  ZINC000970996691    0.0700
     42 H42       -11.8269   -0.8603   59.8846 H       1  ZINC000970996691    0.0900
     43 H43       -12.0730    0.4966   61.9453 H       1  ZINC000970996691    0.0700
     44 H44       -11.5868   -0.9062   62.9272 H       1  ZINC000970996691    0.0700
     45 H45        -9.8867    0.4365   60.7770 H       1  ZINC000970996691    0.0600
     46 H46        -9.6672    0.6134   62.5345 H       1  ZINC000970996691    0.0700
     47 H47        -8.1097   -1.0796   61.6090 H       1  ZINC000970996691    0.0600
     48 H48        -9.2725   -1.8267   62.7307 H       1  ZINC000970996691    0.0600
     49 H49        -9.5123   -1.7808   59.6882 H       1  ZINC000970996691    0.0600
     50 H50        -9.0262   -3.1836   60.6699 H       1  ZINC000970996691    0.0700
     51 H51       -11.2125   -3.1237   61.8383 H       1  ZINC000970996691    0.0800
     52 H52       -11.4320   -3.3005   60.0808 H       1  ZINC000970996691    0.0600
     53 H53       -13.0688   -3.6882   58.8332 H       1  ZINC000970996691    0.0800
     54 H54       -12.8573   -1.9623   58.4069 H       1  ZINC000970996691    0.0800
@<TRIPOS>BOND
     1     1     2    1
     2     1    26    1
     3     1    27    1
     4     1    28    1
     5     2     3    1
     6     2    29    1
     7     2    30    1
     8     3     4    1
     9     3    31    1
    10     3    32    1
    11     4    25    1
    12     4     5    2
    13     5     6    1
    14     6     7    1
    15     6    24    2
    16     7     8    1
    17     7    33    1
    18     7    34    1
    19     8     9    1
    20     8    10    1
    21     9    35    1
    22     9    36    1
    23     9    37    1
    24    10    11    1
    25    10    23    1
    26    10    12    1
    27    12    13    1
    28    12    38    1
    29    12    39    1
    30    13    14    1
    31    13    40    1
    32    13    41    1
    33    14    15   am
    34    14    23    1
    35    15    16    2
    36    15    17    1
    37    17    22    1
    38    17    18    1
    39    17    42    1
    40    18    19    1
    41    18    43    1
    42    18    44    1
    43    19    20    1
    44    19    45    1
    45    19    46    1
    46    20    21    1
    47    20    47    1
    48    20    48    1
    49    21    22    1
    50    21    49    1
    51    21    50    1
    52    22    51    1
    53    22    52    1
    54    23    53    1
    55    23    54    1
    56    24    25    1
@<TRIPOS>SUBSTRUCTURE
     1 ZINC000970996691        1 TEMP              0 ****  ****    0 ROOT


##########                                Name:    ZINC000004313955
##########                DOCK_Rotatable_Bonds:                   6
##########                         Heavy_Atoms:                  26
##########                    Molecular_Weight:             414.358
##########                DOCK_Rotatable_Bonds:                   6
##########                       Formal_Charge:           0.0299997
##########                     HBond_Acceptors:                   9
##########                        HBond_Donors:                   2
##########                         Heavy_Atoms:                  26
##########                          Grid_Score:          -31.531431
##########                     Grid_vdw_energy:          -31.009451
##########                      Grid_es_energy:           -0.521980
##########           Internal_energy_repulsive:           19.311224

@<TRIPOS>MOLECULE
ZINC000004313955
 47 49 1 0 0
SMALL
USER_CHARGES


@<TRIPOS>ATOM
      1 C1        -19.1338   -7.5275   43.5680 C.3     1  ZINC000004313955   -0.1500
      2 C2        -18.3329   -7.0875   44.7953 C.3     1  ZINC000004313955   -0.1100
      3 H3        -18.7059   -6.1258   45.1474 H       1  ZINC000004313955    0.0800
      4 C4        -16.8550   -6.9561   44.4205 C.3     1  ZINC000004313955   -0.1100
      5 C5        -16.0580   -6.4844   45.6388 C.3     1  ZINC000004313955   -0.1100
      6 H6        -15.0093   -6.3686   45.3649 H       1  ZINC000004313955    0.0900
      7 C7        -16.6108   -5.1422   46.1222 C.3     1  ZINC000004313955   -0.1500
      8 C8        -16.1823   -7.5226   46.7584 C.3     1  ZINC000004313955    0.1200
      9 N9        -17.6072   -7.7619   47.0253 N.am    1  ZINC000004313955   -0.6000
     10 C10       -18.1015   -7.6432   48.2735 C.2     1  ZINC000004313955    0.5400
     11 O11       -19.2799   -7.8420   48.4804 O.2     1  ZINC000004313955   -0.5300
     12 C12       -17.1900   -7.2634   49.4119 C.3     1  ZINC000004313955   -0.1400
     13 S13       -18.1314   -6.3505   50.6596 S.3     1  ZINC000004313955    0.0800
     14 C14       -16.8579   -6.0404   51.8372 C.2     1  ZINC000004313955    0.1100
     15 N15       -15.6069   -6.4344   51.7545 N.2     1  ZINC000004313955   -0.2800
     16 N16       -14.9496   -6.0359   52.7844 N.2     1  ZINC000004313955   -0.2400
     17 C17       -15.7403   -5.3631   53.5879 C.2     1  ZINC000004313955    0.2500
     18 C18       -15.3625   -4.7420   54.8750 C.ar    1  ZINC000004313955   -0.0100
     19 C19       -15.3328   -3.3524   55.0004 C.ar    1  ZINC000004313955   -0.0700
     20 C20       -14.9794   -2.7784   56.2040 C.ar    1  ZINC000004313955   -0.1100
     21 C21       -14.6539   -3.5776   57.2869 C.ar    1  ZINC000004313955   -0.0100
     22 Cl22      -14.2097   -2.8470   58.7977 Cl      1  ZINC000004313955   -0.0500
     23 C23       -14.6816   -4.9571   57.1700 C.ar    1  ZINC000004313955   -0.1100
     24 C24       -15.0392   -5.5436   55.9726 C.ar    1  ZINC000004313955    0.0100
     25 Cl25      -15.0736   -7.2731   55.8270 Cl      1  ZINC000004313955   -0.0100
     26 N26       -16.9855   -5.3407   53.0033 N.pl3   1  ZINC000004313955   -0.3000
     27 N27       -18.1158   -4.7488   53.4913 N.3     1  ZINC000004313955   -0.5800
     28 C28       -18.4838   -8.1321   45.9056 C.3     1  ZINC000004313955    0.1100
     29 H29       -20.1862   -7.6221   43.8357 H       1  ZINC000004313955    0.0600
     30 H30       -19.0252   -6.7846   42.7779 H       1  ZINC000004313955    0.0600
     31 H31       -18.7605   -8.4893   43.2162 H       1  ZINC000004313955    0.0600
     32 H32       -16.4764   -7.9238   44.0912 H       1  ZINC000004313955    0.0700
     33 H33       -16.7481   -6.2311   43.6136 H       1  ZINC000004313955    0.0700
     34 H34       -17.6592   -5.2588   46.3970 H       1  ZINC000004313955    0.0600
     35 H35       -16.0429   -4.8067   46.9899 H       1  ZINC000004313955    0.0600
     36 H36       -16.5243   -4.4049   45.3241 H       1  ZINC000004313955    0.0600
     37 H37       -15.7073   -8.4532   46.4483 H       1  ZINC000004313955    0.0700
     38 H38       -15.6998   -7.1465   47.6606 H       1  ZINC000004313955    0.1000
     39 H39       -16.7728   -8.1654   49.8596 H       1  ZINC000004313955    0.1300
     40 H40       -16.3813   -6.6366   49.0362 H       1  ZINC000004313955    0.1300
     41 H41       -15.5857   -2.7275   54.1566 H       1  ZINC000004313955    0.1600
     42 H42       -14.9562   -1.7030   56.3018 H       1  ZINC000004313955    0.1500
     43 H43       -14.4268   -5.5752   58.0180 H       1  ZINC000004313955    0.1500
     44 H44       -18.1239   -4.7615   54.5002 H       1  ZINC000004313955    0.3700
     45 H45       -18.2112   -3.8074   53.1407 H       1  ZINC000004313955    0.3800
     46 H46       -19.5191   -8.1585   46.2455 H       1  ZINC000004313955    0.0900
     47 H47       -18.1967   -9.1125   45.5255 H       1  ZINC000004313955    0.0800
@<TRIPOS>BOND
     1     1     2    1
     2     1    29    1
     3     1    30    1
     4     1    31    1
     5     2     3    1
     6     2    28    1
     7     2     4    1
     8     4     5    1
     9     4    32    1
    10     4    33    1
    11     5     6    1
    12     5     7    1
    13     5     8    1
    14     7    34    1
    15     7    35    1
    16     7    36    1
    17     8     9    1
    18     8    37    1
    19     8    38    1
    20     9    10   am
    21     9    28    1
    22    10    11    2
    23    10    12    1
    24    12    13    1
    25    12    39    1
    26    12    40    1
    27    13    14    1
    28    14    26    1
    29    14    15    2
    30    15    16    1
    31    16    17    2
    32    17    18    1
    33    17    26    1
    34    18    24   ar
    35    18    19   ar
    36    19    20   ar
    37    19    41    1
    38    20    21   ar
    39    20    42    1
    40    21    22    1
    41    21    23   ar
    42    23    24   ar
    43    23    43    1
    44    24    25    1
    45    26    27    1
    46    27    44    1
    47    27    45    1
    48    28    46    1
    49    28    47    1
@<TRIPOS>SUBSTRUCTURE
     1 ZINC000004313955        1 TEMP              0 ****  ****    0 ROOT


##########                                Name:    ZINC000470948647
##########                DOCK_Rotatable_Bonds:                   6
##########                         Heavy_Atoms:                  29
##########                    Molecular_Weight:             412.556
##########                DOCK_Rotatable_Bonds:                   6
##########                       Formal_Charge:           0.0100001
##########                     HBond_Acceptors:                   7
##########                        HBond_Donors:                   1
##########                         Heavy_Atoms:                  29
##########                          Grid_Score:          -31.517776
##########                     Grid_vdw_energy:          -30.645769
##########                      Grid_es_energy:           -0.872007
##########           Internal_energy_repulsive:           15.392552

@<TRIPOS>MOLECULE
ZINC000470948647
 57 60 1 0 0
SMALL
USER_CHARGES


@<TRIPOS>ATOM
      1 C1        -15.9242   -7.1598   54.0396 C.3     1  ZINC000470948647   -0.1100
      2 C2        -15.3077   -6.1647   54.9886 C.ar    1  ZINC000470948647   -0.1000
      3 C3        -14.6561   -6.6073   56.1248 C.ar    1  ZINC000470948647   -0.1100
      4 C4        -14.0899   -5.6976   56.9967 C.ar    1  ZINC000470948647   -0.1100
      5 C5        -14.1755   -4.3375   56.7308 C.ar    1  ZINC000470948647    0.1400
      6 N6        -13.6027   -3.4135   57.6117 N.am    1  ZINC000470948647   -0.6700
      7 C7        -12.3544   -2.9561   57.3905 C.2     1  ZINC000470948647    0.5100
      8 O8        -11.7276   -3.3453   56.4279 O.2     1  ZINC000470948647   -0.4800
      9 C9        -11.7375   -1.9608   58.3392 C.3     1  ZINC000470948647    0.1200
     10 H10       -12.5285   -1.3350   58.7524 H       1  ZINC000470948647    0.1200
     11 C11       -11.0583   -2.7308   59.4946 C.3     1  ZINC000470948647   -0.0700
     12 S12        -9.3041   -2.7522   58.9332 S.3     1  ZINC000470948647   -0.2500
     13 C13        -9.4237   -1.1228   58.0851 C.3     1  ZINC000470948647    0.1600
     14 N14       -10.8135   -1.1173   57.5965 N.am    1  ZINC000470948647   -0.6000
     15 C15       -11.2042   -0.3809   56.5375 C.2     1  ZINC000470948647    0.6300
     16 O16       -12.3635   -0.4087   56.1723 O.2     1  ZINC000470948647   -0.5100
     17 C17       -10.2241    0.4600   55.8206 C.2     1  ZINC000470948647   -0.0100
     18 N18        -9.5224    1.4533   56.3290 N.2     1  ZINC000470948647   -0.2700
     19 N19        -8.7671    1.9671   55.4257 N.pl3   1  ZINC000470948647   -0.2700
     20 C20        -7.8515    3.0907   55.6389 C.3     1  ZINC000470948647    0.1500
     21 C21        -7.2487    2.9985   57.0421 C.3     1  ZINC000470948647   -0.1300
     22 C22        -6.2925    4.1719   57.2646 C.3     1  ZINC000470948647   -0.1200
     23 C23        -5.1722    4.1213   56.2239 C.3     1  ZINC000470948647   -0.1300
     24 C24        -5.7749    4.2136   54.8206 C.3     1  ZINC000470948647   -0.1200
     25 C25        -6.7311    3.0402   54.5981 C.3     1  ZINC000470948647   -0.1300
     26 C26        -8.9383    1.3224   54.2516 C.2     1  ZINC000470948647   -0.0100
     27 C27        -9.8553    0.3485   54.4590 C.2     1  ZINC000470948647   -0.1700
     28 C28       -14.8305   -3.8961   55.5883 C.ar    1  ZINC000470948647   -0.1100
     29 C29       -14.9252   -2.4209   55.2956 C.3     1  ZINC000470948647   -0.1100
     30 C30       -15.3901   -4.8108   54.7182 C.ar    1  ZINC000470948647   -0.1000
     31 H31       -15.1887   -7.4502   53.2893 H       1  ZINC000470948647    0.0700
     32 H32       -16.2441   -8.0415   54.5950 H       1  ZINC000470948647    0.0700
     33 H33       -16.7856   -6.7077   53.5481 H       1  ZINC000470948647    0.0700
     34 H34       -14.5898   -7.6653   56.3311 H       1  ZINC000470948647    0.1200
     35 H35       -13.5816   -6.0439   57.8845 H       1  ZINC000470948647    0.1400
     36 H36       -14.1041   -3.1021   58.3816 H       1  ZINC000470948647    0.4100
     37 H37       -11.1613   -2.1931   60.4372 H       1  ZINC000470948647    0.1200
     38 H38       -11.4553   -3.7425   59.5776 H       1  ZINC000470948647    0.1200
     39 H39        -9.2566   -0.3075   58.7890 H       1  ZINC000470948647    0.1000
     40 H40        -8.7212   -1.0672   57.2535 H       1  ZINC000470948647    0.1400
     41 H41        -8.3979    4.0286   55.5391 H       1  ZINC000470948647    0.1100
     42 H42        -8.0469    3.0344   57.7835 H       1  ZINC000470948647    0.0800
     43 H43        -6.7023    2.0605   57.1418 H       1  ZINC000470948647    0.0800
     44 H44        -6.8389    5.1098   57.1649 H       1  ZINC000470948647    0.0700
     45 H45        -5.8630    4.1061   58.2643 H       1  ZINC000470948647    0.0800
     46 H46        -4.4910    4.9573   56.3824 H       1  ZINC000470948647    0.0700
     47 H47        -4.6257    3.1834   56.3235 H       1  ZINC000470948647    0.0700
     48 H48        -6.3213    5.1514   54.7210 H       1  ZINC000470948647    0.0700
     49 H49        -4.9767    4.1775   54.0793 H       1  ZINC000470948647    0.0700
     50 H50        -6.1847    2.1022   54.6978 H       1  ZINC000470948647    0.0700
     51 H51        -7.1606    3.1059   53.5984 H       1  ZINC000470948647    0.0700
     52 H52        -8.4339    1.5400   53.3218 H       1  ZINC000470948647    0.1800
     53 H53       -10.2316   -0.3597   53.7357 H       1  ZINC000470948647    0.1600
     54 H54       -14.0655   -2.1126   54.7007 H       1  ZINC000470948647    0.0700
     55 H55       -15.8417   -2.2186   54.7414 H       1  ZINC000470948647    0.0700
     56 H56       -14.9369   -1.8645   56.2328 H       1  ZINC000470948647    0.0600
     57 H57       -15.8992   -4.4683   53.8295 H       1  ZINC000470948647    0.1300
@<TRIPOS>BOND
     1     1     2    1
     2     1    31    1
     3     1    32    1
     4     1    33    1
     5     2    30   ar
     6     2     3   ar
     7     3     4   ar
     8     3    34    1
     9     4     5   ar
    10     4    35    1
    11     5     6    1
    12     5    28   ar
    13     6     7   am
    14     6    36    1
    15     7     8    2
    16     7     9    1
    17     9    10    1
    18     9    14    1
    19     9    11    1
    20    11    12    1
    21    11    37    1
    22    11    38    1
    23    12    13    1
    24    13    14    1
    25    13    39    1
    26    13    40    1
    27    14    15   am
    28    15    16    2
    29    15    17    1
    30    17    27    1
    31    17    18    2
    32    18    19    1
    33    19    20    1
    34    19    26    1
    35    20    25    1
    36    20    21    1
    37    20    41    1
    38    21    22    1
    39    21    42    1
    40    21    43    1
    41    22    23    1
    42    22    44    1
    43    22    45    1
    44    23    24    1
    45    23    46    1
    46    23    47    1
    47    24    25    1
    48    24    48    1
    49    24    49    1
    50    25    50    1
    51    25    51    1
    52    26    27    2
    53    26    52    1
    54    27    53    1
    55    28    29    1
    56    28    30   ar
    57    29    54    1
    58    29    55    1
    59    29    56    1
    60    30    57    1
@<TRIPOS>SUBSTRUCTURE
     1 ZINC000470948647        1 TEMP              0 ****  ****    0 ROOT


##########                                Name:    ZINC000740843182
##########                DOCK_Rotatable_Bonds:                  10
##########                         Heavy_Atoms:                  24
##########                    Molecular_Weight:              419.34
##########                DOCK_Rotatable_Bonds:                  10
##########                       Formal_Charge:          0.00999957
##########                     HBond_Acceptors:                   7
##########                        HBond_Donors:                   3
##########                         Heavy_Atoms:                  24
##########                          Grid_Score:          -31.500118
##########                     Grid_vdw_energy:          -30.573030
##########                      Grid_es_energy:           -0.927088
##########           Internal_energy_repulsive:           14.211833

@<TRIPOS>MOLECULE
ZINC000740843182
 47 48 1 0 0
SMALL
USER_CHARGES


@<TRIPOS>ATOM
      1 C1          3.5045    0.2445   44.0073 C.3     1  ZINC000740843182   -0.1500
      2 C2          2.6670    1.2009   43.1558 C.3     1  ZINC000740843182   -0.1000
      3 H3          2.9464    1.0936   42.1077 H       1  ZINC000740843182    0.0900
      4 C4          1.1833    0.8677   43.3248 C.3     1  ZINC000740843182    0.1200
      5 N5          0.8204    0.9591   44.7411 N.am    1  ZINC000740843182   -0.7200
      6 C6         -0.4421    1.2712   45.0946 C.2     1  ZINC000740843182    0.5500
      7 O7         -1.2795    1.4784   44.2381 O.2     1  ZINC000740843182   -0.5000
      8 C8         -0.8086    1.3616   46.5236 C.ar    1  ZINC000740843182   -0.1300
      9 C9         -0.9442    2.6089   47.1350 C.ar    1  ZINC000740843182    0.0200
     10 C10        -1.2870    2.6863   48.4689 C.ar    1  ZINC000740843182   -0.6800
     11 S11        -1.4586    4.2602   49.2422 S.o2    1  ZINC000740843182    2.7000
     12 O12        -1.4116    5.2262   48.2011 O.2     1  ZINC000740843182   -0.9400
     13 O13        -2.5479    4.1459   50.1476 O.2     1  ZINC000740843182   -0.9500
     14 N14        -0.1059    4.5026   50.1663 N.am    1  ZINC000740843182   -1.0900
     15 C15         0.2182    3.5705   51.2489 C.3     1  ZINC000740843182    0.0800
     16 C16         1.3019    3.9920   52.2433 C.3     1  ZINC000740843182   -0.1800
     17 C17        -0.1668    3.9794   52.6721 C.3     1  ZINC000740843182   -0.1900
     18 C18        -1.4966    1.5312   49.2013 C.ar    1  ZINC000740843182    0.0100
     19 C19        -1.3641    0.2913   48.6026 C.ar    1  ZINC000740843182   -0.1200
     20 C20        -1.0263    0.1990   47.2671 C.ar    1  ZINC000740843182    0.0100
     21 Br21       -0.8453   -1.4967   46.4498 Br      1  ZINC000740843182    0.0100
     22 C22         2.9210    2.6407   43.6066 C.3     1  ZINC000740843182   -0.1400
     23 C23         2.6334    3.5964   42.4470 C.3     1  ZINC000740843182    0.1000
     24 H24         2.9037    3.1176   41.5059 H       1  ZINC000740843182    0.1000
     25 C25         3.4555    4.8746   42.6236 C.3     1  ZINC000740843182   -0.1900
     26 O26         1.2422    3.9231   42.4328 O.3     1  ZINC000740843182   -0.5600
     27 H27         4.5616    0.4818   43.8869 H       1  ZINC000740843182    0.0600
     28 H28         3.2251    0.3518   45.0554 H       1  ZINC000740843182    0.0600
     29 H29         3.3235   -0.7812   43.6862 H       1  ZINC000740843182    0.0500
     30 H30         0.5845    1.5742   42.7500 H       1  ZINC000740843182    0.0700
     31 H31         0.9951   -0.1443   42.9661 H       1  ZINC000740843182    0.0700
     32 H32         1.4889    0.7949   45.4246 H       1  ZINC000740843182    0.4000
     33 H33        -0.7810    3.5116   46.5649 H       1  ZINC000740843182    0.1500
     34 H34         0.4717    5.2618   49.9906 H       1  ZINC000740843182    0.4200
     35 H35         0.1525    2.5127   50.9940 H       1  ZINC000740843182    0.1400
     36 H36         1.9495    3.2115   52.6427 H       1  ZINC000740843182    0.1100
     37 H37         1.7736    4.9629   52.0920 H       1  ZINC000740843182    0.1000
     38 H38        -0.6612    4.9420   52.8029 H       1  ZINC000740843182    0.1000
     39 H39        -0.4853    3.1906   53.3536 H       1  ZINC000740843182    0.1100
     40 H40        -1.7648    1.5981   50.2453 H       1  ZINC000740843182    0.1600
     41 H41        -1.5291   -0.6064   49.1799 H       1  ZINC000740843182    0.1500
     42 H42         2.2669    2.8796   44.4451 H       1  ZINC000740843182    0.0700
     43 H43         3.9609    2.7467   43.9153 H       1  ZINC000740843182    0.0800
     44 H44         4.5166    4.6254   42.6343 H       1  ZINC000740843182    0.0700
     45 H45         3.2506    5.5555   41.7974 H       1  ZINC000740843182    0.0600
     46 H46         3.1852    5.3535   43.5647 H       1  ZINC000740843182    0.0600
     47 H47         0.9309    4.3532   43.2410 H       1  ZINC000740843182    0.3700
@<TRIPOS>BOND
     1     1     2    1
     2     1    27    1
     3     1    28    1
     4     1    29    1
     5     2     3    1
     6     2     4    1
     7     2    22    1
     8     4     5    1
     9     4    30    1
    10     4    31    1
    11     5     6   am
    12     5    32    1
    13     6     7    2
    14     6     8    1
    15     8    20   ar
    16     8     9   ar
    17     9    10   ar
    18     9    33    1
    19    10    11    1
    20    10    18   ar
    21    11    12    2
    22    11    13    2
    23    11    14   am
    24    14    15    1
    25    14    34    1
    26    15    17    1
    27    15    16    1
    28    15    35    1
    29    16    17    1
    30    16    36    1
    31    16    37    1
    32    17    38    1
    33    17    39    1
    34    18    19   ar
    35    18    40    1
    36    19    20   ar
    37    19    41    1
    38    20    21    1
    39    22    23    1
    40    22    42    1
    41    22    43    1
    42    23    24    1
    43    23    25    1
    44    23    26    1
    45    25    44    1
    46    25    45    1
    47    25    46    1
    48    26    47    1
@<TRIPOS>SUBSTRUCTURE
     1 ZINC000740843182        1 TEMP              0 ****  ****    0 ROOT


##########                                Name:    ZINC000487792031
##########                DOCK_Rotatable_Bonds:                  12
##########                         Heavy_Atoms:                  29
##########                    Molecular_Weight:             414.569
##########                DOCK_Rotatable_Bonds:                  12
##########                       Formal_Charge:          -0.0100001
##########                     HBond_Acceptors:                   6
##########                        HBond_Donors:                   1
##########                         Heavy_Atoms:                  29
##########                          Grid_Score:          -31.488636
##########                     Grid_vdw_energy:          -31.428915
##########                      Grid_es_energy:           -0.059721
##########           Internal_energy_repulsive:           24.348209

@<TRIPOS>MOLECULE
ZINC000487792031
 59 60 1 0 0
SMALL
USER_CHARGES


@<TRIPOS>ATOM
      1 C1          4.7055    1.3997   54.3134 C.2     1  ZINC000487792031   -0.1900
      2 C2          3.9161    1.7314   53.3220 C.2     1  ZINC000487792031   -0.1500
      3 C3          3.2907    3.1020   53.2829 C.3     1  ZINC000487792031   -0.0900
      4 C4          1.9414    3.0266   52.5657 C.3     1  ZINC000487792031   -0.0900
      5 C5          1.3062    4.4181   52.5266 C.3     1  ZINC000487792031   -0.0700
      6 H6          1.9642    5.1030   51.9918 H       1  ZINC000487792031    0.1100
      7 C7         -0.0229    4.3438   51.8202 C.2     1  ZINC000487792031    0.5200
      8 O8         -0.8305    5.2390   51.9518 O.2     1  ZINC000487792031   -0.5300
      9 N9         -0.3142    3.2826   51.0421 N.am    1  ZINC000487792031   -0.7200
     10 C10        -1.6068    3.2095   50.3568 C.3     1  ZINC000487792031    0.1500
     11 C11        -1.4310    2.5288   49.0238 C.ar    1  ZINC000487792031   -0.0500
     12 C12        -1.0251    3.2595   47.9228 C.ar    1  ZINC000487792031   -0.1200
     13 C13        -0.8638    2.6351   46.7001 C.ar    1  ZINC000487792031   -0.0200
     14 C14        -1.1078    1.2798   46.5785 C.ar    1  ZINC000487792031   -0.6700
     15 S15        -0.9027    0.4840   45.0199 S.o2    1  ZINC000487792031    2.6900
     16 O16        -1.0362   -0.9101   45.2606 O.2     1  ZINC000487792031   -0.9500
     17 O17        -1.7161    1.1946   44.0965 O.2     1  ZINC000487792031   -0.9500
     18 N18         0.6653    0.7289   44.5471 N.am    1  ZINC000487792031   -1.0000
     19 C19         1.7666    0.2411   45.3809 C.3     1  ZINC000487792031    0.1200
     20 C20         2.5711    1.4302   45.9099 C.3     1  ZINC000487792031   -0.1800
     21 C21         0.9510    1.4336   43.2948 C.3     1  ZINC000487792031    0.1100
     22 C22         2.0130    0.6635   42.5073 C.3     1  ZINC000487792031   -0.1800
     23 C23        -1.5125    0.5489   47.6799 C.ar    1  ZINC000487792031   -0.0200
     24 C24        -1.6701    1.1726   48.9035 C.ar    1  ZINC000487792031   -0.1200
     25 C25         1.0998    4.9157   53.9340 C.ar    1  ZINC000487792031   -0.0800
     26 C26        -0.0817    4.6423   54.5975 C.ar    1  ZINC000487792031   -0.1100
     27 C27        -0.2709    5.0989   55.8886 C.ar    1  ZINC000487792031   -0.1100
     28 C28         0.7214    5.8284   56.5161 C.ar    1  ZINC000487792031   -0.1200
     29 C29         1.9033    6.1010   55.8529 C.ar    1  ZINC000487792031   -0.1200
     30 C30         2.0942    5.6408   54.5634 C.ar    1  ZINC000487792031   -0.1100
     31 H31         5.1538    0.4175   54.3414 H       1  ZINC000487792031    0.1000
     32 H32         4.9117    2.1099   55.1004 H       1  ZINC000487792031    0.1000
     33 H33         3.7134    1.0227   52.5326 H       1  ZINC000487792031    0.1100
     34 H34         3.1416    3.4625   54.3007 H       1  ZINC000487792031    0.0700
     35 H35         3.9489    3.7866   52.7478 H       1  ZINC000487792031    0.0700
     36 H36         2.0906    2.6667   51.5477 H       1  ZINC000487792031    0.0800
     37 H37         1.2834    2.3418   53.1006 H       1  ZINC000487792031    0.0700
     38 H38         0.3321    2.5671   50.9359 H       1  ZINC000487792031    0.4000
     39 H39        -2.3092    2.6401   50.9656 H       1  ZINC000487792031    0.0800
     40 H40        -1.9936    4.2168   50.2022 H       1  ZINC000487792031    0.0800
     41 H41        -0.8343    4.3182   48.0178 H       1  ZINC000487792031    0.1400
     42 H42        -0.5472    3.2060   45.8398 H       1  ZINC000487792031    0.1400
     43 H43         1.3635   -0.3267   46.2195 H       1  ZINC000487792031    0.0800
     44 H44         2.4159   -0.4010   44.7860 H       1  ZINC000487792031    0.0800
     45 H45         2.9742    1.9980   45.0714 H       1  ZINC000487792031    0.0600
     46 H46         1.9217    2.0724   46.5050 H       1  ZINC000487792031    0.0600
     47 H47         3.3905    1.0673   46.5303 H       1  ZINC000487792031    0.0700
     48 H48         0.0393    1.5045   42.7016 H       1  ZINC000487792031    0.0900
     49 H49         1.3187    2.4352   43.5172 H       1  ZINC000487792031    0.0900
     50 H50         2.9248    0.5925   43.1005 H       1  ZINC000487792031    0.0600
     51 H51         1.6454   -0.3381   42.2849 H       1  ZINC000487792031    0.0600
     52 H52         2.2256    1.1878   41.5756 H       1  ZINC000487792031    0.0700
     53 H53        -1.7029   -0.5100   47.5850 H       1  ZINC000487792031    0.1400
     54 H54        -1.9863    0.6015   49.7639 H       1  ZINC000487792031    0.1400
     55 H55        -0.8569    4.0724   54.1072 H       1  ZINC000487792031    0.1200
     56 H56        -1.1942    4.8859   56.4067 H       1  ZINC000487792031    0.1200
     57 H57         0.5733    6.1857   57.5245 H       1  ZINC000487792031    0.1200
     58 H58         2.6784    6.6713   56.3431 H       1  ZINC000487792031    0.1200
     59 H59         3.0176    5.8538   54.0453 H       1  ZINC000487792031    0.1200
@<TRIPOS>BOND
     1     1     2    2
     2     1    31    1
     3     1    32    1
     4     2     3    1
     5     2    33    1
     6     3     4    1
     7     3    34    1
     8     3    35    1
     9     4     5    1
    10     4    36    1
    11     4    37    1
    12     5     6    1
    13     5     7    1
    14     5    25    1
    15     7     8    2
    16     7     9   am
    17     9    10    1
    18     9    38    1
    19    10    11    1
    20    10    39    1
    21    10    40    1
    22    11    24   ar
    23    11    12   ar
    24    12    13   ar
    25    12    41    1
    26    13    14   ar
    27    13    42    1
    28    14    15    1
    29    14    23   ar
    30    15    16    2
    31    15    17    2
    32    15    18   am
    33    18    19    1
    34    18    21    1
    35    19    20    1
    36    19    43    1
    37    19    44    1
    38    20    45    1
    39    20    46    1
    40    20    47    1
    41    21    22    1
    42    21    48    1
    43    21    49    1
    44    22    50    1
    45    22    51    1
    46    22    52    1
    47    23    24   ar
    48    23    53    1
    49    24    54    1
    50    25    30   ar
    51    25    26   ar
    52    26    27   ar
    53    26    55    1
    54    27    28   ar
    55    27    56    1
    56    28    29   ar
    57    28    57    1
    58    29    30   ar
    59    29    58    1
    60    30    59    1
@<TRIPOS>SUBSTRUCTURE
     1 ZINC000487792031        1 TEMP              0 ****  ****    0 ROOT


##########                                Name:    ZINC000762187039
##########                DOCK_Rotatable_Bonds:                   9
##########                         Heavy_Atoms:                  25
##########                    Molecular_Weight:             354.473
##########                DOCK_Rotatable_Bonds:                   9
##########                       Formal_Charge:        -1.78814e-07
##########                     HBond_Acceptors:                   5
##########                        HBond_Donors:                   1
##########                         Heavy_Atoms:                  25
##########                          Grid_Score:          -31.459866
##########                     Grid_vdw_energy:          -30.281776
##########                      Grid_es_energy:           -1.178089
##########           Internal_energy_repulsive:            5.012713

@<TRIPOS>MOLECULE
ZINC000762187039
 47 49 1 0 0
SMALL
USER_CHARGES


@<TRIPOS>ATOM
      1 C1        -15.9177   -6.4743   51.1314 C.3     1  ZINC000762187039   -0.0800
      2 C2        -16.1044   -5.5578   52.3131 C.2     1  ZINC000762187039    0.0500
      3 N3        -15.4322   -5.6240   53.4124 N.2     1  ZINC000762187039   -0.4700
      4 C4        -15.7223   -4.7425   54.3481 C.2     1  ZINC000762187039    0.0700
      5 C5        -15.0166   -4.7043   55.6791 C.3     1  ZINC000762187039   -0.0300
      6 C6        -13.8448   -3.7233   55.6070 C.3     1  ZINC000762187039   -0.1300
      7 C7        -13.0648   -3.7768   56.8954 C.2     1  ZINC000762187039    0.5200
      8 O8        -13.5592   -4.2778   57.8831 O.2     1  ZINC000762187039   -0.5400
      9 N9        -11.8181   -3.2679   56.9501 N.am    1  ZINC000762187039   -0.7300
     10 C10       -11.0606   -3.3184   58.2030 C.3     1  ZINC000762187039    0.1200
     11 C11       -10.1715   -2.0780   58.3118 C.3     1  ZINC000762187039   -0.1300
     12 C12        -9.0947   -2.3138   59.3728 C.3     1  ZINC000762187039    0.0600
     13 O13        -9.6992   -2.8385   60.5566 O.3     1  ZINC000762187039   -0.3100
     14 C14       -10.0505   -1.9448   61.5180 C.ar    1  ZINC000762187039    0.1300
     15 C15        -9.0560   -1.3266   62.2817 C.ar    1  ZINC000762187039   -0.1900
     16 C16        -9.3761   -0.4278   63.2512 C.ar    1  ZINC000762187039   -0.0600
     17 C17       -10.7247   -0.1128   63.4917 C.ar    1  ZINC000762187039   -0.0800
     18 C18       -11.0910    0.8114   64.4849 C.ar    1  ZINC000762187039   -0.0900
     19 C19       -12.4065    1.0932   64.6907 C.ar    1  ZINC000762187039   -0.1300
     20 C20       -13.3998    0.4785   63.9304 C.ar    1  ZINC000762187039   -0.1000
     21 C21       -13.0832   -0.4215   62.9601 C.ar    1  ZINC000762187039   -0.1200
     22 C22       -11.7349   -0.7381   62.7182 C.ar    1  ZINC000762187039   -0.0100
     23 C23       -11.3704   -1.6580   61.7219 C.ar    1  ZINC000762187039   -0.1500
     24 C24       -16.6934   -3.8850   54.0197 C.2     1  ZINC000762187039   -0.2600
     25 S25       -17.2325   -4.2753   52.3883 S.3     1  ZINC000762187039    0.1200
     26 H26       -16.6111   -6.1916   50.3393 H       1  ZINC000762187039    0.0800
     27 H27       -14.8944   -6.3912   50.7652 H       1  ZINC000762187039    0.0900
     28 H28       -16.1127   -7.5028   51.4350 H       1  ZINC000762187039    0.0900
     29 H29       -15.7145   -4.3806   56.4513 H       1  ZINC000762187039    0.0900
     30 H30       -14.6431   -5.6994   55.9209 H       1  ZINC000762187039    0.0900
     31 H31       -13.1935   -3.9957   54.7765 H       1  ZINC000762187039    0.0900
     32 H32       -14.2253   -2.7134   55.4543 H       1  ZINC000762187039    0.1000
     33 H33       -11.4223   -2.8683   56.1598 H       1  ZINC000762187039    0.4000
     34 H34       -11.7523   -3.3444   59.0449 H       1  ZINC000762187039    0.0700
     35 H35       -10.4387   -4.2134   58.2158 H       1  ZINC000762187039    0.0700
     36 H36        -9.6973   -1.8854   57.3494 H       1  ZINC000762187039    0.0800
     37 H37       -10.7793   -1.2189   58.5957 H       1  ZINC000762187039    0.0800
     38 H38        -8.3607   -3.0249   58.9938 H       1  ZINC000762187039    0.0700
     39 H39        -8.6004   -1.3704   59.6048 H       1  ZINC000762187039    0.0700
     40 H40        -8.0187   -1.5662   62.0996 H       1  ZINC000762187039    0.1300
     41 H41        -8.5974    0.0416   63.8340 H       1  ZINC000762187039    0.1300
     42 H42       -10.3324    1.2955   65.0821 H       1  ZINC000762187039    0.1300
     43 H43       -12.6849    1.8038   65.4550 H       1  ZINC000762187039    0.1200
     44 H44       -14.4363    0.7198   64.1144 H       1  ZINC000762187039    0.1200
     45 H45       -13.8635   -0.8900   62.3787 H       1  ZINC000762187039    0.1300
     46 H46       -12.1295   -2.1387   61.1226 H       1  ZINC000762187039    0.1300
     47 H47       -17.0771   -3.0908   54.6428 H       1  ZINC000762187039    0.1800
@<TRIPOS>BOND
     1     1     2    1
     2     1    26    1
     3     1    27    1
     4     1    28    1
     5     2    25    1
     6     2     3    2
     7     3     4    1
     8     4     5    1
     9     4    24    2
    10     5     6    1
    11     5    29    1
    12     5    30    1
    13     6     7    1
    14     6    31    1
    15     6    32    1
    16     7     8    2
    17     7     9   am
    18     9    10    1
    19     9    33    1
    20    10    11    1
    21    10    34    1
    22    10    35    1
    23    11    12    1
    24    11    36    1
    25    11    37    1
    26    12    13    1
    27    12    38    1
    28    12    39    1
    29    13    14    1
    30    14    23   ar
    31    14    15   ar
    32    15    16   ar
    33    15    40    1
    34    16    17   ar
    35    16    41    1
    36    17    22   ar
    37    17    18   ar
    38    18    19   ar
    39    18    42    1
    40    19    20   ar
    41    19    43    1
    42    20    21   ar
    43    20    44    1
    44    21    22   ar
    45    21    45    1
    46    22    23   ar
    47    23    46    1
    48    24    25    1
    49    24    47    1
@<TRIPOS>SUBSTRUCTURE
     1 ZINC000762187039        1 TEMP              0 ****  ****    0 ROOT


##########                                Name:    ZINC000150894060
##########                DOCK_Rotatable_Bonds:                  10
##########                         Heavy_Atoms:                  27
##########                    Molecular_Weight:              366.42
##########                DOCK_Rotatable_Bonds:                  10
##########                       Formal_Charge:        -6.70552e-07
##########                     HBond_Acceptors:                   7
##########                        HBond_Donors:                   2
##########                         Heavy_Atoms:                  27
##########                          Grid_Score:          -31.455036
##########                     Grid_vdw_energy:          -28.081858
##########                      Grid_es_energy:           -3.373178
##########           Internal_energy_repulsive:           20.148331

@<TRIPOS>MOLECULE
ZINC000150894060
 49 51 1 0 0
SMALL
USER_CHARGES


@<TRIPOS>ATOM
      1 C1         -6.1385    5.0416   65.3302 C.3     1  ZINC000150894060   -0.1000
      2 C2         -4.6625    4.7800   65.4854 C.2     1  ZINC000150894060   -0.0800
      3 C3         -4.0599    3.5616   65.6149 C.2     1  ZINC000150894060   -0.1000
      4 C4         -4.7386    2.2616   65.6286 C.2     1  ZINC000150894060    0.6100
      5 O5         -4.0910    1.2384   65.7496 O.2     1  ZINC000150894060   -0.5100
      6 N6         -6.0794    2.2001   65.5072 N.am    1  ZINC000150894060   -0.7200
      7 C7         -6.7575    0.9015   65.5226 C.3     1  ZINC000150894060    0.1200
      8 C8         -8.1641    1.0676   66.1013 C.3     1  ZINC000150894060   -0.1500
      9 C9         -8.9129   -0.2637   66.0116 C.3     1  ZINC000150894060    0.1200
     10 N10        -9.0589   -0.6479   64.6053 N.am    1  ZINC000150894060   -0.7300
     11 C11       -10.0830   -0.1616   63.8767 C.2     1  ZINC000150894060    0.5600
     12 O12       -10.8846    0.5972   64.3857 O.2     1  ZINC000150894060   -0.5300
     13 C13       -10.2313   -0.5507   62.4581 C.ar    1  ZINC000150894060   -0.1300
     14 C14        -9.2205   -1.2709   61.8195 C.ar    1  ZINC000150894060   -0.0900
     15 C15        -9.3654   -1.6314   60.4957 C.ar    1  ZINC000150894060   -0.0900
     16 C16       -10.5094   -1.2803   59.8011 C.ar    1  ZINC000150894060   -0.0800
     17 C17       -10.6606   -1.6770   58.3553 C.3     1  ZINC000150894060    0.1700
     18 N18       -11.1375   -3.0599   58.2757 N.pl3   1  ZINC000150894060   -0.3700
     19 C19       -10.4201   -4.1652   58.5672 C.2     1  ZINC000150894060    0.0500
     20 C20       -11.2182   -5.2395   58.3671 C.2     1  ZINC000150894060   -0.2700
     21 C21       -12.4660   -4.7749   57.9388 C.2     1  ZINC000150894060    0.0400
     22 N22       -12.4207   -3.4682   57.8895 N.2     1  ZINC000150894060   -0.2900
     23 C23       -11.5153   -0.5669   60.4285 C.ar    1  ZINC000150894060   -0.1100
     24 C24       -11.3853   -0.2047   61.7533 C.ar    1  ZINC000150894060   -0.0600
     25 O25        -2.7307    3.7632   65.7279 O.3     1  ZINC000150894060   -0.1700
     26 C26        -2.4741    5.0765   65.6737 C.2     1  ZINC000150894060    0.0000
     27 C27        -3.6403    5.7413   65.5189 C.2     1  ZINC000150894060   -0.2300
     28 H28        -6.3986    5.0389   64.2717 H       1  ZINC000150894060    0.0800
     29 H29        -6.7016    4.2628   65.8446 H       1  ZINC000150894060    0.0900
     30 H30        -6.3829    6.0121   65.7619 H       1  ZINC000150894060    0.0700
     31 H31        -6.5955    3.0156   65.4096 H       1  ZINC000150894060    0.4100
     32 H32        -6.8262    0.5154   64.5057 H       1  ZINC000150894060    0.0800
     33 H33        -6.1913    0.2032   66.1389 H       1  ZINC000150894060    0.0800
     34 H34        -8.0939    1.3754   67.1445 H       1  ZINC000150894060    0.0800
     35 H35        -8.7030    1.8265   65.5341 H       1  ZINC000150894060    0.0800
     36 H36        -8.3515   -1.0328   66.5420 H       1  ZINC000150894060    0.0800
     37 H37        -9.8991   -0.1570   66.4632 H       1  ZINC000150894060    0.0800
     38 H38        -8.4184   -1.2525   64.1988 H       1  ZINC000150894060    0.4000
     39 H39        -8.3268   -1.5450   62.3603 H       1  ZINC000150894060    0.1300
     40 H40        -8.5840   -2.1886   60.0004 H       1  ZINC000150894060    0.1300
     41 H41       -11.3793   -1.0164   57.8704 H       1  ZINC000150894060    0.1100
     42 H42        -9.6964   -1.5957   57.8534 H       1  ZINC000150894060    0.1000
     43 H43        -9.3929   -4.1880   58.9001 H       1  ZINC000150894060    0.1700
     44 H44       -10.9405   -6.2730   58.5121 H       1  ZINC000150894060    0.1500
     45 H45       -13.3208   -5.3886   57.6957 H       1  ZINC000150894060    0.1800
     46 H46       -12.4059   -0.2961   59.8808 H       1  ZINC000150894060    0.1300
     47 H47       -12.1714    0.3519   62.2418 H       1  ZINC000150894060    0.1400
     48 H48        -1.4957    5.5294   65.7387 H       1  ZINC000150894060    0.2100
     49 H49        -3.7633    6.8116   65.4421 H       1  ZINC000150894060    0.1600
@<TRIPOS>BOND
     1     1     2    1
     2     1    28    1
     3     1    29    1
     4     1    30    1
     5     2    27    1
     6     2     3    2
     7     3     4    1
     8     3    25    1
     9     4     5    2
    10     4     6   am
    11     6     7    1
    12     6    31    1
    13     7     8    1
    14     7    32    1
    15     7    33    1
    16     8     9    1
    17     8    34    1
    18     8    35    1
    19     9    10    1
    20     9    36    1
    21     9    37    1
    22    10    11   am
    23    10    38    1
    24    11    12    2
    25    11    13    1
    26    13    24   ar
    27    13    14   ar
    28    14    15   ar
    29    14    39    1
    30    15    16   ar
    31    15    40    1
    32    16    17    1
    33    16    23   ar
    34    17    18    1
    35    17    41    1
    36    17    42    1
    37    18    22    1
    38    18    19    1
    39    19    20    2
    40    19    43    1
    41    20    21    1
    42    20    44    1
    43    21    22    2
    44    21    45    1
    45    23    24   ar
    46    23    46    1
    47    24    47    1
    48    25    26    1
    49    26    27    2
    50    26    48    1
    51    27    49    1
@<TRIPOS>SUBSTRUCTURE
     1 ZINC000150894060        1 TEMP              0 ****  ****    0 ROOT


##########                                Name:    ZINC000508765459
##########                DOCK_Rotatable_Bonds:                  10
##########                         Heavy_Atoms:                  29
##########                    Molecular_Weight:               405.5
##########                DOCK_Rotatable_Bonds:                  10
##########                       Formal_Charge:         -6.4075e-07
##########                     HBond_Acceptors:                  10
##########                        HBond_Donors:                   1
##########                         Heavy_Atoms:                  29
##########                          Grid_Score:          -31.389044
##########                     Grid_vdw_energy:          -29.380829
##########                      Grid_es_energy:           -2.008215
##########           Internal_energy_repulsive:           16.458202

@<TRIPOS>MOLECULE
ZINC000508765459
 60 62 1 0 0
SMALL
USER_CHARGES


@<TRIPOS>ATOM
      1 C1          1.3250    1.6576   42.8674 C.3     1  ZINC000508765459    0.0300
      2 O2          0.5670    0.5848   43.4302 O.3     1  ZINC000508765459   -0.3900
      3 C3         -0.0998    0.9210   44.6485 C.3     1  ZINC000508765459    0.0500
      4 C4          0.3764   -0.0110   45.7645 C.3     1  ZINC000508765459    0.1100
      5 N5          0.1313    0.6186   47.0644 N.am    1  ZINC000508765459   -0.5900
      6 C6         -1.1411    0.3471   47.7191 C.3     1  ZINC000508765459    0.1000
      7 C7         -1.0409    0.5983   49.2250 C.3     1  ZINC000508765459    0.1200
      8 N8         -0.3712    1.8936   49.4313 N.am    1  ZINC000508765459   -0.6400
      9 C9         -0.9936    2.9131   50.0554 C.2     1  ZINC000508765459    0.7100
     10 O10        -0.4180    3.9727   50.2114 O.2     1  ZINC000508765459   -0.5800
     11 N11        -2.2541    2.7581   50.5066 N.am    1  ZINC000508765459   -0.7400
     12 C12        -2.9314    3.8670   51.1835 C.3     1  ZINC000508765459    0.1400
     13 C13        -3.9087    3.3106   52.2210 C.3     1  ZINC000508765459   -0.1400
     14 C14        -4.8379    4.4288   52.6975 C.3     1  ZINC000508765459    0.0600
     15 N15        -5.5972    3.9690   53.8679 N.3     1  ZINC000508765459   -0.5400
     16 C16        -6.5718    2.9357   53.4908 C.3     1  ZINC000508765459    0.0500
     17 C17        -7.2843    2.4278   54.7465 C.3     1  ZINC000508765459    0.0700
     18 N18        -7.9480    3.5534   55.4190 N.3     1  ZINC000508765459   -0.4600
     19 C19        -8.6634    3.1201   56.5219 C.ar    1  ZINC000508765459    0.4900
     20 N20        -8.8190    3.9368   57.5535 N.ar    1  ZINC000508765459   -0.5500
     21 C21        -9.4973    3.5541   58.6227 C.ar    1  ZINC000508765459    0.1700
     22 C22       -10.0477    2.2824   58.6546 C.ar    1  ZINC000508765459   -0.2600
     23 C23        -9.8658    1.4538   57.5585 C.ar    1  ZINC000508765459    0.1700
     24 N24        -9.1808    1.9004   56.5187 N.ar    1  ZINC000508765459   -0.5300
     25 C25        -6.9735    4.5866   55.7961 C.3     1  ZINC000508765459    0.0700
     26 C26        -6.2609    5.0945   54.5405 C.3     1  ZINC000508765459    0.0600
     27 C27         1.0042    2.0291   48.9293 C.3     1  ZINC000508765459    0.1000
     28 C28         1.0912    1.3960   47.5677 C.2     1  ZINC000508765459    0.5100
     29 O29         2.0760    1.6090   46.8925 O.2     1  ZINC000508765459   -0.5400
     30 H30         2.0904    1.9728   43.5765 H       1  ZINC000508765459    0.0400
     31 H31         1.8000    1.3222   41.9454 H       1  ZINC000508765459    0.0900
     32 H32         0.6628    2.4959   42.6509 H       1  ZINC000508765459    0.0400
     33 H33         0.1284    1.9529   44.9149 H       1  ZINC000508765459    0.0500
     34 H34        -1.1760    0.8093   44.5164 H       1  ZINC000508765459    0.0600
     35 H35        -0.1688   -0.9532   45.7086 H       1  ZINC000508765459    0.1100
     36 H36         1.4435   -0.2014   45.6484 H       1  ZINC000508765459    0.0900
     37 H37        -1.9076    0.9970   47.2972 H       1  ZINC000508765459    0.0700
     38 H38        -1.4186   -0.6928   47.5466 H       1  ZINC000508765459    0.1000
     39 H39        -2.0398    0.6272   49.6602 H       1  ZINC000508765459    0.1200
     40 H40        -0.4583   -0.1955   49.6923 H       1  ZINC000508765459    0.0800
     41 H41        -2.7129    1.9125   50.3832 H       1  ZINC000508765459    0.4000
     42 H42        -2.1922    4.4950   51.6807 H       1  ZINC000508765459    0.0700
     43 H43        -3.4784    4.4602   50.4507 H       1  ZINC000508765459    0.0700
     44 H44        -4.5003    2.5130   51.7717 H       1  ZINC000508765459    0.0700
     45 H45        -3.3510    2.9152   53.0700 H       1  ZINC000508765459    0.0800
     46 H46        -4.2457    5.3025   52.9689 H       1  ZINC000508765459    0.0800
     47 H47        -5.5290    4.6926   51.8968 H       1  ZINC000508765459    0.0400
     48 H48        -7.3039    3.3599   52.8036 H       1  ZINC000508765459    0.0500
     49 H49        -6.0546    2.1077   53.0061 H       1  ZINC000508765459    0.0900
     50 H50        -8.0281    1.6821   54.4660 H       1  ZINC000508765459    0.0900
     51 H51        -6.5558    1.9792   55.4218 H       1  ZINC000508765459    0.0600
     52 H52        -9.6206    4.2242   59.4605 H       1  ZINC000508765459    0.1700
     53 H53       -10.6059    1.9443   59.5152 H       1  ZINC000508765459    0.1500
     54 H54       -10.2814    0.4570   57.5519 H       1  ZINC000508765459    0.1700
     55 H55        -7.4906    5.4147   56.2809 H       1  ZINC000508765459    0.1000
     56 H56        -6.2413    4.1625   56.4833 H       1  ZINC000508765459    0.0500
     57 H57        -5.5171    5.8403   54.8210 H       1  ZINC000508765459    0.0900
     58 H58        -6.9895    5.5432   53.8652 H       1  ZINC000508765459    0.0500
     59 H59         1.2657    3.0851   48.8614 H       1  ZINC000508765459    0.1100
     60 H60         1.6918    1.5239   49.6075 H       1  ZINC000508765459    0.1100
@<TRIPOS>BOND
     1     1     2    1
     2     1    30    1
     3     1    31    1
     4     1    32    1
     5     2     3    1
     6     3     4    1
     7     3    33    1
     8     3    34    1
     9     4     5    1
    10     4    35    1
    11     4    36    1
    12     5    28   am
    13     5     6    1
    14     6     7    1
    15     6    37    1
    16     6    38    1
    17     7     8    1
    18     7    39    1
    19     7    40    1
    20     8     9   am
    21     8    27    1
    22     9    10    2
    23     9    11   am
    24    11    12    1
    25    11    41    1
    26    12    13    1
    27    12    42    1
    28    12    43    1
    29    13    14    1
    30    13    44    1
    31    13    45    1
    32    14    15    1
    33    14    46    1
    34    14    47    1
    35    15    26    1
    36    15    16    1
    37    16    17    1
    38    16    48    1
    39    16    49    1
    40    17    18    1
    41    17    50    1
    42    17    51    1
    43    18    19    1
    44    18    25    1
    45    19    24   ar
    46    19    20   ar
    47    20    21   ar
    48    21    22   ar
    49    21    52    1
    50    22    23   ar
    51    22    53    1
    52    23    24   ar
    53    23    54    1
    54    25    26    1
    55    25    55    1
    56    25    56    1
    57    26    57    1
    58    26    58    1
    59    27    28    1
    60    27    59    1
    61    27    60    1
    62    28    29    2
@<TRIPOS>SUBSTRUCTURE
     1 ZINC000508765459        1 TEMP              0 ****  ****    0 ROOT


##########                                Name:    ZINC000053543817
##########                DOCK_Rotatable_Bonds:                   7
##########                         Heavy_Atoms:                  25
##########                    Molecular_Weight:             350.458
##########                DOCK_Rotatable_Bonds:                   7
##########                       Formal_Charge:           0.0199998
##########                     HBond_Acceptors:                   6
##########                        HBond_Donors:                   2
##########                         Heavy_Atoms:                  25
##########                          Grid_Score:          -31.384281
##########                     Grid_vdw_energy:          -25.598444
##########                      Grid_es_energy:           -5.785836
##########           Internal_energy_repulsive:           34.615303

@<TRIPOS>MOLECULE
ZINC000053543817
 55 56 1 0 0
SMALL
USER_CHARGES


@<TRIPOS>ATOM
      1 C1        -14.4557    1.0054   64.8854 C.3     1  ZINC000053543817   -0.0700
      2 C2        -13.3450    0.5757   63.9618 C.2     1  ZINC000053543817   -0.0200
      3 C3        -12.1076    0.1990   64.3402 C.2     1  ZINC000053543817   -0.1800
      4 C4        -11.4050   -0.1161   63.1632 C.2     1  ZINC000053543817   -0.1900
      5 C5        -12.2491    0.0837   62.1302 C.2     1  ZINC000053543817    0.0000
      6 C6        -11.8793   -0.1439   60.6847 C.3     1  ZINC000053543817   -0.0300
      7 C7        -10.6102   -1.0031   60.6386 C.3     1  ZINC000053543817   -0.0500
      8 C8        -10.9400   -2.4246   61.0985 C.3     1  ZINC000053543817   -0.1500
      9 C9        -10.0732   -1.0425   59.2064 C.3     1  ZINC000053543817   -0.1400
     10 C10        -9.5497   -0.4006   61.5643 C.3     1  ZINC000053543817   -0.1200
     11 C11        -9.9814   -0.5885   63.0244 C.3     1  ZINC000053543817    0.2200
     12 H12        -9.9162   -1.6427   63.2936 H       1  ZINC000053543817    0.1000
     13 N13        -9.1117    0.1993   63.9014 N.am    1  ZINC000053543817   -0.7100
     14 C14        -8.7039   -0.3103   65.0805 C.2     1  ZINC000053543817    0.5100
     15 O15        -9.0581   -1.4206   65.4162 O.2     1  ZINC000053543817   -0.5300
     16 C16        -7.8079    0.4995   65.9818 C.3     1  ZINC000053543817    0.1400
     17 H17        -7.1292   -0.1671   66.5138 H       1  ZINC000053543817    0.1200
     18 C18        -8.6615    1.2698   66.9911 C.3     1  ZINC000053543817   -0.1600
     19 N19        -7.0314    1.4455   65.1763 N.am    1  ZINC000053543817   -0.7000
     20 C20        -5.8816    1.9566   65.6592 C.2     1  ZINC000053543817    0.6600
     21 O21        -5.4898    1.6340   66.7633 O.2     1  ZINC000053543817   -0.5700
     22 O22        -5.1673    2.8246   64.9184 O.3     1  ZINC000053543817   -0.3600
     23 C23        -3.9893    3.4059   65.5372 C.3     1  ZINC000053543817    0.1400
     24 C24        -3.0046    2.2939   65.9040 C.3     1  ZINC000053543817   -0.1800
     25 C25        -3.3236    4.3740   64.5572 C.3     1  ZINC000053543817   -0.1400
     26 C26        -4.3988    4.1623   66.8026 C.3     1  ZINC000053543817   -0.1800
     27 O27       -13.4232    0.4980   62.6212 O.3     1  ZINC000053543817   -0.1700
     28 H28       -15.3424    1.2472   64.2994 H       1  ZINC000053543817    0.0800
     29 H29       -14.6871    0.1952   65.5770 H       1  ZINC000053543817    0.0800
     30 H30       -14.1410    1.8845   65.4478 H       1  ZINC000053543817    0.0800
     31 H31       -11.7291    0.1491   65.3505 H       1  ZINC000053543817    0.1400
     32 H32       -12.6918   -0.6627   60.1760 H       1  ZINC000053543817    0.0900
     33 H33       -11.6913    0.8139   60.1995 H       1  ZINC000053543817    0.0900
     34 H34       -11.6939   -2.8542   60.4389 H       1  ZINC000053543817    0.0600
     35 H35       -10.0379   -3.0356   61.0658 H       1  ZINC000053543817    0.0600
     36 H36       -11.3230   -2.3967   62.1185 H       1  ZINC000053543817    0.0600
     37 H37        -9.8387   -0.0299   58.8783 H       1  ZINC000053543817    0.0600
     38 H38        -9.1710   -1.6532   59.1733 H       1  ZINC000053543817    0.0600
     39 H39       -10.8274   -1.4725   58.5473 H       1  ZINC000053543817    0.0600
     40 H40        -8.5961   -0.9023   61.3997 H       1  ZINC000053543817    0.0800
     41 H41        -9.4427    0.6629   61.3506 H       1  ZINC000053543817    0.0700
     42 H42        -8.8294    1.0878   63.6333 H       1  ZINC000053543817    0.4000
     43 H43        -9.2392    0.5661   67.5903 H       1  ZINC000053543817    0.0800
     44 H44        -8.0134    1.8557   67.6430 H       1  ZINC000053543817    0.0800
     45 H45        -9.3401    1.9366   66.4590 H       1  ZINC000053543817    0.0700
     46 H46        -7.3448    1.7038   64.2955 H       1  ZINC000053543817    0.4200
     47 H47        -2.7129    1.7550   65.0026 H       1  ZINC000053543817    0.0600
     48 H48        -2.1203    2.7302   66.3687 H       1  ZINC000053543817    0.0700
     49 H49        -3.4790    1.6042   66.6022 H       1  ZINC000053543817    0.0900
     50 H50        -4.0251    5.1662   64.2960 H       1  ZINC000053543817    0.0700
     51 H51        -2.4393    4.8103   65.0219 H       1  ZINC000053543817    0.0800
     52 H52        -3.0318    3.8351   63.6558 H       1  ZINC000053543817    0.0700
     53 H53        -4.8732    3.4726   67.5007 H       1  ZINC000053543817    0.0900
     54 H54        -3.5146    4.5987   67.2672 H       1  ZINC000053543817    0.0700
     55 H55        -5.1004    4.9545   66.5412 H       1  ZINC000053543817    0.0600
@<TRIPOS>BOND
     1     1     2    1
     2     1    28    1
     3     1    29    1
     4     1    30    1
     5     2    27    1
     6     2     3    2
     7     3     4    1
     8     3    31    1
     9     4    11    1
    10     4     5    2
    11     5     6    1
    12     5    27    1
    13     6     7    1
    14     6    32    1
    15     6    33    1
    16     7     8    1
    17     7     9    1
    18     7    10    1
    19     8    34    1
    20     8    35    1
    21     8    36    1
    22     9    37    1
    23     9    38    1
    24     9    39    1
    25    10    11    1
    26    10    40    1
    27    10    41    1
    28    11    12    1
    29    11    13    1
    30    13    14   am
    31    13    42    1
    32    14    15    2
    33    14    16    1
    34    16    17    1
    35    16    18    1
    36    16    19    1
    37    18    43    1
    38    18    44    1
    39    18    45    1
    40    19    20   am
    41    19    46    1
    42    20    21    2
    43    20    22    1
    44    22    23    1
    45    23    24    1
    46    23    25    1
    47    23    26    1
    48    24    47    1
    49    24    48    1
    50    24    49    1
    51    25    50    1
    52    25    51    1
    53    25    52    1
    54    26    53    1
    55    26    54    1
    56    26    55    1
@<TRIPOS>SUBSTRUCTURE
     1 ZINC000053543817        1 TEMP              0 ****  ****    0 ROOT


##########                                Name:    ZINC000451019064
##########                DOCK_Rotatable_Bonds:                   8
##########                         Heavy_Atoms:                  23
##########                    Molecular_Weight:             346.534
##########                DOCK_Rotatable_Bonds:                   8
##########                       Formal_Charge:          -0.0200008
##########                     HBond_Acceptors:                   6
##########                        HBond_Donors:                   1
##########                         Heavy_Atoms:                  23
##########                          Grid_Score:          -31.371050
##########                     Grid_vdw_energy:          -28.574495
##########                      Grid_es_energy:           -2.796555
##########           Internal_energy_repulsive:           10.073668

@<TRIPOS>MOLECULE
ZINC000451019064
 57 58 1 0 0
SMALL
USER_CHARGES


@<TRIPOS>ATOM
      1 C1        -13.9025   -1.6927   60.5282 C.3     1  ZINC000451019064   -0.1500
      2 C2        -12.5064   -2.1383   60.9678 C.3     1  ZINC000451019064    0.0900
      3 H3        -12.5928   -2.9751   61.6608 H       1  ZINC000451019064    0.0700
      4 C4        -11.7922   -0.9737   61.6590 C.3     1  ZINC000451019064    0.0200
      5 N5        -10.4247   -1.3833   62.0102 N.3     1  ZINC000451019064   -0.5400
      6 C6         -9.7219   -0.3113   62.7277 C.3     1  ZINC000451019064    0.0600
      7 C7        -10.1380   -0.3252   64.2001 C.3     1  ZINC000451019064   -0.1300
      8 C8         -9.1354   -1.1541   65.0055 C.3     1  ZINC000451019064    0.1100
      9 N9         -8.0897   -0.2756   65.5354 N.am    1  ZINC000451019064   -1.1200
     10 S10        -8.1032    0.1572   67.1338 S.o2    1  ZINC000451019064    2.6100
     11 O11        -9.2995    0.9095   67.2831 O.2     1  ZINC000451019064   -0.9600
     12 O12        -7.9161   -1.0673   67.8301 O.2     1  ZINC000451019064   -0.9500
     13 C13        -6.6507    1.2268   67.3255 C.3     1  ZINC000451019064   -0.6300
     14 C14        -6.7858    2.4406   66.4039 C.3     1  ZINC000451019064   -0.1100
     15 C15        -5.5611    3.3431   66.5661 C.3     1  ZINC000451019064   -0.0800
     16 C16        -4.2990    2.5614   66.1961 C.3     1  ZINC000451019064   -0.1200
     17 C17        -3.0741    3.4638   66.3583 C.3     1  ZINC000451019064   -0.1200
     18 C18        -3.2100    4.6783   65.4377 C.3     1  ZINC000451019064   -0.1200
     19 C19        -4.4721    5.4601   65.8077 C.3     1  ZINC000451019064   -0.1200
     20 C20        -5.6970    4.5576   65.6455 C.3     1  ZINC000451019064   -0.1200
     21 C21        -9.6789   -1.7914   60.8108 C.3     1  ZINC000451019064    0.0200
     22 C22       -10.4142   -2.9477   60.1281 C.3     1  ZINC000451019064    0.0900
     23 H23       -10.4392   -3.8084   60.7964 H       1  ZINC000451019064    0.0700
     24 C24        -9.6859   -3.3248   58.8364 C.3     1  ZINC000451019064   -0.1500
     25 O25       -11.7514   -2.5427   59.8225 O.3     1  ZINC000451019064   -0.3800
     26 H26       -14.4099   -2.5218   60.0348 H       1  ZINC000451019064    0.0700
     27 H27       -14.4768   -1.3832   61.4013 H       1  ZINC000451019064    0.0700
     28 H28       -13.8154   -0.8559   59.8352 H       1  ZINC000451019064    0.0600
     29 H29       -11.7541   -0.1183   60.9846 H       1  ZINC000451019064    0.0400
     30 H30       -12.3341   -0.7003   62.5644 H       1  ZINC000451019064    0.0900
     31 H31        -8.6460   -0.4686   62.6528 H       1  ZINC000451019064    0.0400
     32 H32        -9.9801    0.6513   62.2863 H       1  ZINC000451019064    0.0800
     33 H33       -10.1558    0.6954   64.5823 H       1  ZINC000451019064    0.0800
     34 H34       -11.1309   -0.7654   64.2929 H       1  ZINC000451019064    0.0800
     35 H35        -9.6504   -1.6451   65.8313 H       1  ZINC000451019064    0.0800
     36 H36        -8.6845   -1.9071   64.3593 H       1  ZINC000451019064    0.0700
     37 H37        -7.3892    0.0525   64.9501 H       1  ZINC000451019064    0.4200
     38 H38        -6.5804    1.5623   68.3603 H       1  ZINC000451019064    0.1300
     39 H39        -5.7517    0.6693   67.0625 H       1  ZINC000451019064    0.1400
     40 H40        -6.8556    2.1052   65.3691 H       1  ZINC000451019064    0.0800
     41 H41        -7.6851    2.9979   66.6666 H       1  ZINC000451019064    0.0800
     42 H42        -5.4908    3.6778   67.6010 H       1  ZINC000451019064    0.0800
     43 H43        -4.2022    1.6962   66.8520 H       1  ZINC000451019064    0.0600
     44 H44        -4.3693    2.2266   65.1612 H       1  ZINC000451019064    0.0700
     45 H45        -3.0040    3.7985   67.3933 H       1  ZINC000451019064    0.0600
     46 H46        -2.1750    2.9069   66.0947 H       1  ZINC000451019064    0.0600
     47 H47        -2.3375    5.3212   65.5532 H       1  ZINC000451019064    0.0600
     48 H48        -3.2803    4.3436   64.4028 H       1  ZINC000451019064    0.0600
     49 H49        -4.4019    5.7947   66.8426 H       1  ZINC000451019064    0.0600
     50 H50        -4.5689    6.3252   65.1518 H       1  ZINC000451019064    0.0600
     51 H51        -5.7672    4.2229   64.6105 H       1  ZINC000451019064    0.0700
     52 H52        -6.5961    5.1145   65.9091 H       1  ZINC000451019064    0.0600
     53 H53        -9.6071   -0.9491   60.1228 H       1  ZINC000451019064    0.0400
     54 H54        -8.6781   -2.1149   61.0970 H       1  ZINC000451019064    0.0900
     55 H55        -8.6662   -3.6307   59.0704 H       1  ZINC000451019064    0.0700
     56 H56       -10.2099   -4.1481   58.3509 H       1  ZINC000451019064    0.0700
     57 H57        -9.6627   -2.4642   58.1679 H       1  ZINC000451019064    0.0600
@<TRIPOS>BOND
     1     1     2    1
     2     1    26    1
     3     1    27    1
     4     1    28    1
     5     2     3    1
     6     2    25    1
     7     2     4    1
     8     4     5    1
     9     4    29    1
    10     4    30    1
    11     5     6    1
    12     5    21    1
    13     6     7    1
    14     6    31    1
    15     6    32    1
    16     7     8    1
    17     7    33    1
    18     7    34    1
    19     8     9    1
    20     8    35    1
    21     8    36    1
    22     9    10   am
    23     9    37    1
    24    10    11    2
    25    10    12    2
    26    10    13    1
    27    13    14    1
    28    13    38    1
    29    13    39    1
    30    14    15    1
    31    14    40    1
    32    14    41    1
    33    15    20    1
    34    15    16    1
    35    15    42    1
    36    16    17    1
    37    16    43    1
    38    16    44    1
    39    17    18    1
    40    17    45    1
    41    17    46    1
    42    18    19    1
    43    18    47    1
    44    18    48    1
    45    19    20    1
    46    19    49    1
    47    19    50    1
    48    20    51    1
    49    20    52    1
    50    21    22    1
    51    21    53    1
    52    21    54    1
    53    22    23    1
    54    22    24    1
    55    22    25    1
    56    24    55    1
    57    24    56    1
    58    24    57    1
@<TRIPOS>SUBSTRUCTURE
     1 ZINC000451019064        1 TEMP              0 ****  ****    0 ROOT


##########                                Name:    ZINC000790205345
##########                DOCK_Rotatable_Bonds:                   7
##########                         Heavy_Atoms:                  28
##########                    Molecular_Weight:             382.459
##########                DOCK_Rotatable_Bonds:                   7
##########                       Formal_Charge:          -0.0299997
##########                     HBond_Acceptors:                   6
##########                        HBond_Donors:                   0
##########                         Heavy_Atoms:                  28
##########                          Grid_Score:          -31.350780
##########                     Grid_vdw_energy:          -31.517723
##########                      Grid_es_energy:            0.166942
##########           Internal_energy_repulsive:           26.111034

@<TRIPOS>MOLECULE
ZINC000790205345
 54 56 1 0 0
SMALL
USER_CHARGES


@<TRIPOS>ATOM
      1 C1        -16.5144   -6.5800   51.4524 C.3     1  ZINC000790205345   -0.1100
      2 C2        -16.1964   -6.2077   52.8777 C.ar    1  ZINC000790205345   -0.1300
      3 C3        -15.6086   -7.1345   53.7182 C.ar    1  ZINC000790205345   -0.0800
      4 C4        -15.3156   -6.7955   55.0252 C.ar    1  ZINC000790205345   -0.2100
      5 C5        -15.6118   -5.5240   55.4937 C.ar    1  ZINC000790205345    0.1300
      6 O6        -15.3242   -5.1879   56.7787 O.3     1  ZINC000790205345   -0.2900
      7 C7        -14.4123   -4.1057   56.9775 C.3     1  ZINC000790205345    0.0400
      8 C8        -13.1498   -4.6238   57.6170 C.2     1  ZINC000790205345    0.5200
      9 O9        -12.9060   -5.8117   57.6024 O.2     1  ZINC000790205345   -0.5100
     10 N10       -12.2917   -3.7669   58.2052 N.am    1  ZINC000790205345   -0.6100
     11 C11       -11.0636   -4.2705   58.8253 C.3     1  ZINC000790205345    0.0700
     12 C12       -12.5870   -2.3322   58.2245 C.3     1  ZINC000790205345    0.1800
     13 H13       -13.4308   -2.1260   57.5659 H       1  ZINC000790205345    0.1200
     14 C14       -11.3617   -1.5528   57.7428 C.3     1  ZINC000790205345   -0.1600
     15 C15       -12.9313   -1.9090   59.6293 C.ar    1  ZINC000790205345   -0.0700
     16 C16       -14.2441   -1.9503   60.0608 C.ar    1  ZINC000790205345   -0.1300
     17 C17       -14.5642   -1.5621   61.3491 C.ar    1  ZINC000790205345   -0.0900
     18 C18       -13.5725   -1.1324   62.2088 C.ar    1  ZINC000790205345   -0.1500
     19 C19       -12.2528   -1.0902   61.7785 C.ar    1  ZINC000790205345    0.1800
     20 N20       -11.2454   -0.6555   62.6474 N.am    1  ZINC000790205345   -0.5700
     21 C21       -11.3654    0.4485   63.6120 C.3     1  ZINC000790205345    0.0600
     22 C22        -9.9843    0.4919   64.2937 C.3     1  ZINC000790205345    0.0400
     23 O23        -9.2386   -0.5809   63.6487 O.3     1  ZINC000790205345   -0.3200
     24 C24       -10.0162   -1.1810   62.7405 C.2     1  ZINC000790205345    0.6400
     25 O25        -9.6397   -2.1122   62.0566 O.2     1  ZINC000790205345   -0.5000
     26 C26       -11.9340   -1.4854   60.4861 C.ar    1  ZINC000790205345   -0.1400
     27 C27       -16.2017   -4.5954   54.6480 C.ar    1  ZINC000790205345   -0.1500
     28 C28       -16.4878   -4.9376   53.3408 C.ar    1  ZINC000790205345   -0.0500
     29 C29       -17.1280   -3.9296   52.4215 C.3     1  ZINC000790205345   -0.1200
     30 H30       -15.6591   -6.3496   50.8172 H       1  ZINC000790205345    0.0700
     31 H31       -16.7325   -7.6464   51.3955 H       1  ZINC000790205345    0.0600
     32 H32       -17.3817   -6.0132   51.1137 H       1  ZINC000790205345    0.0700
     33 H33       -15.3786   -8.1246   53.3531 H       1  ZINC000790205345    0.1300
     34 H34       -14.8569   -7.5201   55.6816 H       1  ZINC000790205345    0.1300
     35 H35       -14.1725   -3.6513   56.0161 H       1  ZINC000790205345    0.1000
     36 H36       -14.8695   -3.3601   57.6279 H       1  ZINC000790205345    0.0900
     37 H37       -10.2898   -4.3765   58.0651 H       1  ZINC000790205345    0.0600
     38 H38       -10.7285   -3.5690   59.5894 H       1  ZINC000790205345    0.0800
     39 H39       -11.2587   -5.2403   59.2828 H       1  ZINC000790205345    0.0700
     40 H40       -10.5180   -1.7589   58.4014 H       1  ZINC000790205345    0.0600
     41 H41       -11.1127   -1.8588   56.7267 H       1  ZINC000790205345    0.0700
     42 H42       -11.5815   -0.4852   57.7572 H       1  ZINC000790205345    0.0800
     43 H43       -15.0214   -2.2860   59.3904 H       1  ZINC000790205345    0.1300
     44 H44       -15.5907   -1.5949   61.6831 H       1  ZINC000790205345    0.1300
     45 H45       -13.8232   -0.8291   63.2146 H       1  ZINC000790205345    0.1300
     46 H46       -11.5675    1.3872   63.0963 H       1  ZINC000790205345    0.1000
     47 H47       -12.1463    0.2358   64.3421 H       1  ZINC000790205345    0.1000
     48 H48        -9.5011    1.4529   64.1172 H       1  ZINC000790205345    0.1100
     49 H49       -10.0797    0.3017   65.3627 H       1  ZINC000790205345    0.1100
     50 H50       -10.9086   -1.4540   60.1486 H       1  ZINC000790205345    0.1600
     51 H51       -16.4335   -3.6049   55.0104 H       1  ZINC000790205345    0.1300
     52 H52       -16.3522   -3.3594   51.9107 H       1  ZINC000790205345    0.0700
     53 H53       -17.7423   -4.4479   51.6852 H       1  ZINC000790205345    0.0700
     54 H54       -17.7528   -3.2523   53.0038 H       1  ZINC000790205345    0.0700
@<TRIPOS>BOND
     1     1     2    1
     2     1    30    1
     3     1    31    1
     4     1    32    1
     5     2    28   ar
     6     2     3   ar
     7     3     4   ar
     8     3    33    1
     9     4     5   ar
    10     4    34    1
    11     5     6    1
    12     5    27   ar
    13     6     7    1
    14     7     8    1
    15     7    35    1
    16     7    36    1
    17     8     9    2
    18     8    10   am
    19    10    11    1
    20    10    12    1
    21    11    37    1
    22    11    38    1
    23    11    39    1
    24    12    13    1
    25    12    14    1
    26    12    15    1
    27    14    40    1
    28    14    41    1
    29    14    42    1
    30    15    26   ar
    31    15    16   ar
    32    16    17   ar
    33    16    43    1
    34    17    18   ar
    35    17    44    1
    36    18    19   ar
    37    18    45    1
    38    19    20    1
    39    19    26   ar
    40    20    24   am
    41    20    21    1
    42    21    22    1
    43    21    46    1
    44    21    47    1
    45    22    23    1
    46    22    48    1
    47    22    49    1
    48    23    24    1
    49    24    25    2
    50    26    50    1
    51    27    28   ar
    52    27    51    1
    53    28    29    1
    54    29    52    1
    55    29    53    1
    56    29    54    1
@<TRIPOS>SUBSTRUCTURE
     1 ZINC000790205345        1 TEMP              0 ****  ****    0 ROOT


##########                                Name:    ZINC000623695407
##########                DOCK_Rotatable_Bonds:                  10
##########                         Heavy_Atoms:                  27
##########                    Molecular_Weight:             368.479
##########                DOCK_Rotatable_Bonds:                  10
##########                       Formal_Charge:           0.0299989
##########                     HBond_Acceptors:                   6
##########                        HBond_Donors:                   2
##########                         Heavy_Atoms:                  27
##########                          Grid_Score:          -31.342606
##########                     Grid_vdw_energy:          -27.058252
##########                      Grid_es_energy:           -4.284354
##########           Internal_energy_repulsive:           11.682805

@<TRIPOS>MOLECULE
ZINC000623695407
 55 57 1 0 0
SMALL
USER_CHARGES


@<TRIPOS>ATOM
      1 C1        -14.7884   -4.7988   54.9856 C.3     1  ZINC000623695407    0.0300
      2 O2        -14.5126   -5.1844   56.3337 O.3     1  ZINC000623695407   -0.3200
      3 C3        -13.6085   -4.4346   57.0173 C.ar    1  ZINC000623695407    0.1300
      4 C4        -13.7358   -3.0536   57.0521 C.ar    1  ZINC000623695407   -0.2100
      5 C5        -12.8157   -2.2936   57.7481 C.ar    1  ZINC000623695407   -0.0600
      6 C6        -11.7683   -2.9083   58.4091 C.ar    1  ZINC000623695407   -0.1100
      7 C7        -10.7657   -2.0768   59.1671 C.3     1  ZINC000623695407    0.0600
      8 N8        -11.4014   -1.5173   60.3675 N.3     1  ZINC000623695407   -0.4600
      9 C9        -11.2160   -2.4085   61.5278 C.3     1  ZINC000623695407    0.0000
     10 C10       -10.9522   -1.1569   62.3766 C.3     1  ZINC000623695407   -0.1300
     11 C11       -10.5091   -0.5524   61.0369 C.3     1  ZINC000623695407    0.0100
     12 H12        -9.4535   -0.7118   60.8165 H       1  ZINC000623695407    0.0900
     13 C13       -10.9381    0.9048   60.8541 C.3     1  ZINC000623695407    0.1600
     14 N14        -9.8820    1.6408   60.1546 N.am    1  ZINC000623695407   -0.7400
     15 C15        -9.8760    1.6935   58.8079 C.2     1  ZINC000623695407    0.7100
     16 O16       -10.7462    1.1291   58.1735 O.2     1  ZINC000623695407   -0.5900
     17 N17        -8.9053    2.3720   58.1645 N.am    1  ZINC000623695407   -0.7400
     18 C18        -8.8978    2.4278   56.7006 C.3     1  ZINC000623695407    0.1700
     19 H19        -9.9234    2.4236   56.3315 H       1  ZINC000623695407    0.0900
     20 C20        -8.1963    3.7081   56.2426 C.3     1  ZINC000623695407   -0.1600
     21 C21        -8.1518    1.2117   56.1478 C.3     1  ZINC000623695407   -0.0900
     22 C22        -8.3307    1.1496   54.6527 C.ar    1  ZINC000623695407   -0.0300
     23 C23        -9.4969    0.6456   54.0978 C.ar    1  ZINC000623695407   -0.1700
     24 C24        -9.6252    0.6043   52.7223 C.ar    1  ZINC000623695407    0.1000
     25 N25        -8.6547    1.0365   51.9411 N.ar    1  ZINC000623695407   -0.4900
     26 C26        -7.5321    1.5221   52.4338 C.ar    1  ZINC000623695407    0.1000
     27 C27        -7.3350    1.6005   53.7995 C.ar    1  ZINC000623695407   -0.1700
     28 C28       -11.6396   -4.2846   58.3762 C.ar    1  ZINC000623695407   -0.0700
     29 C29       -12.5599   -5.0493   57.6861 C.ar    1  ZINC000623695407   -0.1500
     30 H30       -15.5248   -5.4784   54.5567 H       1  ZINC000623695407    0.1000
     31 H31       -15.1809   -3.7820   54.9716 H       1  ZINC000623695407    0.0600
     32 H32       -13.8699   -4.8418   54.4002 H       1  ZINC000623695407    0.0600
     33 H33       -14.5533   -2.5730   56.5354 H       1  ZINC000623695407    0.1300
     34 H34       -12.9144   -1.2185   57.7755 H       1  ZINC000623695407    0.1200
     35 H35        -9.9227   -2.7023   59.4604 H       1  ZINC000623695407    0.0600
     36 H36       -10.4121   -1.2651   58.5314 H       1  ZINC000623695407    0.0700
     37 H37       -12.1217   -2.9438   61.8132 H       1  ZINC000623695407    0.0900
     38 H38       -10.3492   -3.0633   61.4383 H       1  ZINC000623695407    0.0700
     39 H39       -11.8509   -0.7040   62.7953 H       1  ZINC000623695407    0.1000
     40 H40       -10.1472   -1.2716   63.1026 H       1  ZINC000623695407    0.0800
     41 H41       -11.8565    0.9424   60.2681 H       1  ZINC000623695407    0.0700
     42 H42       -11.1113    1.3577   61.8304 H       1  ZINC000623695407    0.0700
     43 H43        -9.1872    2.0901   60.6608 H       1  ZINC000623695407    0.3900
     44 H44        -8.2118    2.8233   58.6707 H       1  ZINC000623695407    0.3900
     45 H45        -8.1907    3.7495   55.1534 H       1  ZINC000623695407    0.0700
     46 H46        -8.7278    4.5744   56.6364 H       1  ZINC000623695407    0.0700
     47 H47        -7.1707    3.7123   56.6117 H       1  ZINC000623695407    0.0600
     48 H48        -7.0911    1.2981   56.3836 H       1  ZINC000623695407    0.1000
     49 H49        -8.5517    0.3039   56.5995 H       1  ZINC000623695407    0.0800
     50 H50       -10.2950    0.2894   54.7323 H       1  ZINC000623695407    0.1300
     51 H51       -10.5305    0.2131   52.2821 H       1  ZINC000623695407    0.1500
     52 H52        -6.7593    1.8664   51.7624 H       1  ZINC000623695407    0.1600
     53 H53        -6.4136    1.9995   54.1971 H       1  ZINC000623695407    0.1400
     54 H54       -10.8207   -4.7623   58.8937 H       1  ZINC000623695407    0.1200
     55 H55       -12.4589   -6.1243   57.6607 H       1  ZINC000623695407    0.1300
@<TRIPOS>BOND
     1     1     2    1
     2     1    30    1
     3     1    31    1
     4     1    32    1
     5     2     3    1
     6     3    29   ar
     7     3     4   ar
     8     4     5   ar
     9     4    33    1
    10     5     6   ar
    11     5    34    1
    12     6     7    1
    13     6    28   ar
    14     7     8    1
    15     7    35    1
    16     7    36    1
    17     8    11    1
    18     8     9    1
    19     9    10    1
    20     9    37    1
    21     9    38    1
    22    10    11    1
    23    10    39    1
    24    10    40    1
    25    11    12    1
    26    11    13    1
    27    13    14    1
    28    13    41    1
    29    13    42    1
    30    14    15   am
    31    14    43    1
    32    15    16    2
    33    15    17   am
    34    17    18    1
    35    17    44    1
    36    18    19    1
    37    18    20    1
    38    18    21    1
    39    20    45    1
    40    20    46    1
    41    20    47    1
    42    21    22    1
    43    21    48    1
    44    21    49    1
    45    22    27   ar
    46    22    23   ar
    47    23    24   ar
    48    23    50    1
    49    24    25   ar
    50    24    51    1
    51    25    26   ar
    52    26    27   ar
    53    26    52    1
    54    27    53    1
    55    28    29   ar
    56    28    54    1
    57    29    55    1
@<TRIPOS>SUBSTRUCTURE
     1 ZINC000623695407        1 TEMP              0 ****  ****    0 ROOT


##########                                Name:    ZINC001041713551
##########                DOCK_Rotatable_Bonds:                  10
##########                         Heavy_Atoms:                  22
##########                    Molecular_Weight:             330.448
##########                DOCK_Rotatable_Bonds:                  10
##########                       Formal_Charge:          -0.0100006
##########                     HBond_Acceptors:                   7
##########                        HBond_Donors:                   2
##########                         Heavy_Atoms:                  22
##########                          Grid_Score:          -31.311962
##########                     Grid_vdw_energy:          -28.870874
##########                      Grid_es_energy:           -2.441088
##########           Internal_energy_repulsive:            7.570439

@<TRIPOS>MOLECULE
ZINC001041713551
 48 49 1 0 0
SMALL
USER_CHARGES


@<TRIPOS>ATOM
      1 C1         -4.9684    1.3167   65.1090 C.3     1  ZINC001041713551   -0.1500
      2 C2         -5.6831    1.7894   66.3766 C.3     1  ZINC001041713551   -0.1100
      3 C3         -7.1430    1.3333   66.3392 C.3     1  ZINC001041713551   -0.1000
      4 S4         -7.2087   -0.4772   66.2475 S.3     1  ZINC001041713551   -0.1800
      5 C5         -8.9898   -0.8212   66.2427 C.3     1  ZINC001041713551   -0.1300
      6 C6         -9.6143   -0.2193   65.0103 C.2     1  ZINC001041713551    0.5300
      7 O7        -10.6736    0.3657   65.0914 O.2     1  ZINC001041713551   -0.5100
      8 N8         -8.9957   -0.3311   63.8181 N.am    1  ZINC001041713551   -0.7300
      9 C9         -9.6021    0.2555   62.6204 C.3     1  ZINC001041713551    0.1000
     10 C10       -10.4696   -0.7935   61.9219 C.3     1  ZINC001041713551    0.0900
     11 O11       -11.7178   -1.0134   62.5820 O.3     1  ZINC001041713551   -0.5200
     12 C12       -10.5982   -0.5797   60.4028 C.3     1  ZINC001041713551    0.0900
     13 N13       -10.4297   -2.0410   60.2842 N.am    1  ZINC001041713551   -0.6400
     14 C14       -10.7853   -2.9614   59.3660 C.2     1  ZINC001041713551    0.5500
     15 O15       -10.5062   -4.1290   59.5381 O.2     1  ZINC001041713551   -0.5100
     16 C16       -11.5297   -2.5396   58.1254 C.3     1  ZINC001041713551    0.0800
     17 H17       -11.5187   -1.4525   58.0469 H       1  ZINC001041713551    0.0800
     18 C18       -12.9773   -3.0309   58.2068 C.3     1  ZINC001041713551   -0.1500
     19 C19       -13.7106   -2.6509   56.9168 C.3     1  ZINC001041713551   -0.1200
     20 C20       -12.9607   -3.2470   55.7216 C.3     1  ZINC001041713551   -0.1600
     21 C21       -11.5137   -2.7474   55.7362 C.3     1  ZINC001041713551    0.0600
     22 O22       -10.8992   -3.1068   56.9753 O.3     1  ZINC001041713551   -0.3600
     23 C23        -9.7154   -2.0899   61.5746 C.3     1  ZINC001041713551    0.1200
     24 H24        -5.4600    1.7429   64.2344 H       1  ZINC001041713551    0.0600
     25 H25        -3.9284    1.6416   65.1357 H       1  ZINC001041713551    0.0600
     26 H26        -5.0079    0.2288   65.0538 H       1  ZINC001041713551    0.0600
     27 H27        -5.1916    1.3631   67.2512 H       1  ZINC001041713551    0.0700
     28 H28        -5.6436    2.8773   66.4318 H       1  ZINC001041713551    0.0700
     29 H29        -7.6522    1.6700   67.2423 H       1  ZINC001041713551    0.0800
     30 H30        -7.6345    1.7594   65.4647 H       1  ZINC001041713551    0.0800
     31 H31        -9.1515   -1.8992   66.2424 H       1  ZINC001041713551    0.1100
     32 H32        -9.4464   -0.3855   67.1313 H       1  ZINC001041713551    0.1100
     33 H33        -8.1492   -0.8001   63.7530 H       1  ZINC001041713551    0.4000
     34 H34       -10.2203    1.1066   62.9059 H       1  ZINC001041713551    0.0900
     35 H35        -8.8170    0.5882   61.9415 H       1  ZINC001041713551    0.0900
     36 H36       -12.2461   -0.2122   62.7011 H       1  ZINC001041713551    0.3800
     37 H37       -11.5802   -0.2239   60.0908 H       1  ZINC001041713551    0.0900
     38 H38        -9.7790   -0.0063   59.9689 H       1  ZINC001041713551    0.1000
     39 H39       -12.9881   -4.1143   58.3262 H       1  ZINC001041713551    0.0800
     40 H40       -13.4729   -2.5647   59.0584 H       1  ZINC001041713551    0.0800
     41 H41       -14.7259   -3.0465   56.9444 H       1  ZINC001041713551    0.0700
     42 H42       -13.7433   -1.5655   56.8221 H       1  ZINC001041713551    0.0700
     43 H43       -12.9711   -4.3348   55.7908 H       1  ZINC001041713551    0.0700
     44 H44       -13.4444   -2.9355   54.7958 H       1  ZINC001041713551    0.0800
     45 H45       -10.9637   -3.2022   54.9123 H       1  ZINC001041713551    0.1000
     46 H46       -11.5025   -1.6630   55.6262 H       1  ZINC001041713551    0.0500
     47 H47        -8.6368   -1.9600   61.4850 H       1  ZINC001041713551    0.1100
     48 H48        -9.9925   -2.9398   62.1983 H       1  ZINC001041713551    0.1000
@<TRIPOS>BOND
     1     1     2    1
     2     1    24    1
     3     1    25    1
     4     1    26    1
     5     2     3    1
     6     2    27    1
     7     2    28    1
     8     3     4    1
     9     3    29    1
    10     3    30    1
    11     4     5    1
    12     5     6    1
    13     5    31    1
    14     5    32    1
    15     6     7    2
    16     6     8   am
    17     8     9    1
    18     8    33    1
    19     9    10    1
    20     9    34    1
    21     9    35    1
    22    10    23    1
    23    10    11    1
    24    10    12    1
    25    11    36    1
    26    12    13    1
    27    12    37    1
    28    12    38    1
    29    13    14   am
    30    13    23    1
    31    14    15    2
    32    14    16    1
    33    16    17    1
    34    16    22    1
    35    16    18    1
    36    18    19    1
    37    18    39    1
    38    18    40    1
    39    19    20    1
    40    19    41    1
    41    19    42    1
    42    20    21    1
    43    20    43    1
    44    20    44    1
    45    21    22    1
    46    21    45    1
    47    21    46    1
    48    23    47    1
    49    23    48    1
@<TRIPOS>SUBSTRUCTURE
     1 ZINC001041713551        1 TEMP              0 ****  ****    0 ROOT


##########                                Name:    ZINC000894043060
##########                DOCK_Rotatable_Bonds:                  11
##########                         Heavy_Atoms:                  26
##########                    Molecular_Weight:             396.812
##########                DOCK_Rotatable_Bonds:                  11
##########                       Formal_Charge:          -0.0199999
##########                     HBond_Acceptors:                   9
##########                        HBond_Donors:                   2
##########                         Heavy_Atoms:                  26
##########                          Grid_Score:          -31.299744
##########                     Grid_vdw_energy:          -32.273952
##########                      Grid_es_energy:            0.974208
##########           Internal_energy_repulsive:           13.413107

@<TRIPOS>MOLECULE
ZINC000894043060
 47 47 1 0 0
SMALL
USER_CHARGES


@<TRIPOS>ATOM
      1 C1         -9.3110   -1.4752   59.5966 C.3     1  ZINC000894043060   -0.1700
      2 C2        -10.3635   -2.5356   59.9263 C.3     1  ZINC000894043060    0.1000
      3 H3         -9.9058   -3.5243   59.8937 H       1  ZINC000894043060    0.1100
      4 N4        -11.4493   -2.4678   58.9451 N.am    1  ZINC000894043060   -0.7300
      5 C5        -11.3584   -3.1572   57.7907 C.2     1  ZINC000894043060    0.5200
      6 O6        -10.3771   -3.8327   57.5634 O.2     1  ZINC000894043060   -0.5200
      7 C7        -12.4762   -3.0888   56.7823 C.3     1  ZINC000894043060   -0.1400
      8 C8        -13.7206   -3.7719   57.3530 C.3     1  ZINC000894043060   -0.0200
      9 C9        -14.7553   -2.7111   57.7338 C.3     1  ZINC000894043060   -0.1400
     10 C10       -15.5376   -3.1802   58.9335 C.2     1  ZINC000894043060    0.5200
     11 O11       -16.1363   -4.2341   58.8926 O.2     1  ZINC000894043060   -0.5200
     12 N12       -15.5717   -2.4285   60.0517 N.am    1  ZINC000894043060   -0.7300
     13 C13       -16.3307   -2.8854   61.2184 C.3     1  ZINC000894043060    0.1000
     14 H14       -16.3504   -3.9751   61.2352 H       1  ZINC000894043060    0.1200
     15 C15       -15.6647   -2.3676   62.4949 C.3     1  ZINC000894043060   -0.1700
     16 C16       -17.7619   -2.3507   61.1371 C.3     1  ZINC000894043060    0.2600
     17 F17       -17.7330   -0.9571   61.0170 F       1  ZINC000894043060   -0.1900
     18 F18       -18.4029   -2.9016   60.0223 F       1  ZINC000894043060   -0.2000
     19 C19       -14.3065   -4.6958   56.3166 C.ar    1  ZINC000894043060   -0.0600
     20 C20       -14.5512   -4.2324   55.0374 C.ar    1  ZINC000894043060   -0.1200
     21 C21       -15.0885   -5.0793   54.0863 C.ar    1  ZINC000894043060   -0.1200
     22 C22       -15.3815   -6.3910   54.4149 C.ar    1  ZINC000894043060   -0.0400
     23 Cl23      -16.0559   -7.4554   53.2208 Cl      1  ZINC000894043060   -0.0800
     24 C24       -15.1363   -6.8541   55.6954 C.ar    1  ZINC000894043060   -0.1100
     25 C25       -14.5937   -6.0078   56.6440 C.ar    1  ZINC000894043060   -0.0400
     26 C26       -10.9245   -2.2793   61.3265 C.3     1  ZINC000894043060    0.2600
     27 F27        -9.8837   -2.3191   62.2603 F       1  ZINC000894043060   -0.2000
     28 F28       -11.5345   -1.0208   61.3612 F       1  ZINC000894043060   -0.1900
     29 H29        -9.7688   -0.4865   59.6291 H       1  ZINC000894043060    0.0600
     30 H30        -8.5032   -1.5258   60.3265 H       1  ZINC000894043060    0.0800
     31 H31        -8.9113   -1.6578   58.5991 H       1  ZINC000894043060    0.0800
     32 H32       -12.2336   -1.9265   59.1265 H       1  ZINC000894043060    0.4000
     33 H33       -12.7032   -2.0458   56.5617 H       1  ZINC000894043060    0.1000
     34 H34       -12.1712   -3.5957   55.8668 H       1  ZINC000894043060    0.1000
     35 H35       -13.4462   -4.3460   58.2380 H       1  ZINC000894043060    0.1000
     36 H36       -14.2469   -1.7773   57.9741 H       1  ZINC000894043060    0.1000
     37 H37       -15.4351   -2.5497   56.8972 H       1  ZINC000894043060    0.1000
     38 H38       -15.0938   -1.5850   60.0839 H       1  ZINC000894043060    0.4000
     39 H39       -15.6451   -1.2779   62.4780 H       1  ZINC000894043060    0.0700
     40 H40       -16.2295   -2.7075   63.3630 H       1  ZINC000894043060    0.0800
     41 H41       -14.6451   -2.7485   62.5528 H       1  ZINC000894043060    0.0700
     42 H42       -18.3047   -2.6262   62.0413 H       1  ZINC000894043060    0.1200
     43 H43       -14.3229   -3.2085   54.7811 H       1  ZINC000894043060    0.1200
     44 H44       -15.2801   -4.7172   53.0871 H       1  ZINC000894043060    0.1300
     45 H45       -15.3651   -7.8778   55.9525 H       1  ZINC000894043060    0.1300
     46 H46       -14.4020   -6.3693   57.6434 H       1  ZINC000894043060    0.1300
     47 H47       -11.6600   -3.0463   61.5692 H       1  ZINC000894043060    0.1100
@<TRIPOS>BOND
     1     1     2    1
     2     1    29    1
     3     1    30    1
     4     1    31    1
     5     2     3    1
     6     2     4    1
     7     2    26    1
     8     4     5   am
     9     4    32    1
    10     5     6    2
    11     5     7    1
    12     7     8    1
    13     7    33    1
    14     7    34    1
    15     8     9    1
    16     8    19    1
    17     8    35    1
    18     9    10    1
    19     9    36    1
    20     9    37    1
    21    10    11    2
    22    10    12   am
    23    12    13    1
    24    12    38    1
    25    13    14    1
    26    13    15    1
    27    13    16    1
    28    15    39    1
    29    15    40    1
    30    15    41    1
    31    16    17    1
    32    16    18    1
    33    16    42    1
    34    19    25   ar
    35    19    20   ar
    36    20    21   ar
    37    20    43    1
    38    21    22   ar
    39    21    44    1
    40    22    23    1
    41    22    24   ar
    42    24    25   ar
    43    24    45    1
    44    25    46    1
    45    26    27    1
    46    26    28    1
    47    26    47    1
@<TRIPOS>SUBSTRUCTURE
     1 ZINC000894043060        1 TEMP              0 ****  ****    0 ROOT


##########                                Name:    ZINC000822206030
##########                DOCK_Rotatable_Bonds:                   7
##########                         Heavy_Atoms:                  29
##########                    Molecular_Weight:             391.448
##########                DOCK_Rotatable_Bonds:                   7
##########                       Formal_Charge:         -0.00999995
##########                     HBond_Acceptors:                   7
##########                        HBond_Donors:                   1
##########                         Heavy_Atoms:                  29
##########                          Grid_Score:          -31.295559
##########                     Grid_vdw_energy:          -29.623743
##########                      Grid_es_energy:           -1.671815
##########           Internal_energy_repulsive:           24.305834

@<TRIPOS>MOLECULE
ZINC000822206030
 51 55 1 0 0
SMALL
USER_CHARGES


@<TRIPOS>ATOM
      1 C1         -9.2804   -0.7772   62.2440 C.3     1  ZINC000822206030   -0.1300
      2 C2        -10.7578   -0.8121   61.9484 C.ar    1  ZINC000822206030   -0.0400
      3 C3        -11.6692   -0.5414   62.9498 C.ar    1  ZINC000822206030   -0.1500
      4 C4        -13.0270   -0.5739   62.6789 C.ar    1  ZINC000822206030    0.1100
      5 F5        -13.9172   -0.3091   63.6600 F       1  ZINC000822206030   -0.1400
      6 C6        -13.4734   -0.8768   61.4037 C.ar    1  ZINC000822206030   -0.1500
      7 C7        -12.5648   -1.1482   60.3992 C.ar    1  ZINC000822206030   -0.0800
      8 C8        -11.2032   -1.1110   60.6675 C.ar    1  ZINC000822206030    0.1100
      9 N9        -10.2805   -1.3854   59.6506 N.am    1  ZINC000822206030   -0.5600
     10 C10        -9.9217   -2.7717   59.3415 C.3     1  ZINC000822206030    0.1500
     11 C11       -10.9821   -3.3805   58.4606 C.ar    1  ZINC000822206030   -0.0900
     12 C12       -11.3032   -4.7194   58.5935 C.ar    1  ZINC000822206030   -0.1000
     13 C13       -12.2738   -5.2819   57.7896 C.ar    1  ZINC000822206030   -0.0800
     14 C14       -12.9306   -4.4988   56.8430 C.ar    1  ZINC000822206030   -0.0100
     15 C15       -13.9758   -5.0984   55.9758 C.2     1  ZINC000822206030    0.2200
     16 N16       -14.4156   -6.3402   56.0166 N.2     1  ZINC000822206030   -0.2900
     17 N17       -15.3194   -6.4687   55.1070 N.pl3   1  ZINC000822206030   -0.2300
     18 N18       -15.4661   -5.3478   54.4912 N.2     1  ZINC000822206030   -0.0500
     19 N19       -14.6601   -4.4804   55.0028 N.2     1  ZINC000822206030   -0.2700
     20 C20       -12.6033   -3.1511   56.7133 C.ar    1  ZINC000822206030   -0.0800
     21 C21       -11.6347   -2.5973   57.5259 C.ar    1  ZINC000822206030   -0.0900
     22 C22        -9.7224   -0.3740   58.9562 C.2     1  ZINC000822206030    0.5500
     23 O23        -8.9220   -0.6116   58.0764 O.2     1  ZINC000822206030   -0.5000
     24 C24       -10.0928    1.0520   59.2729 C.3     1  ZINC000822206030   -0.1900
     25 H25        -9.6682    1.4549   60.1924 H       1  ZINC000822206030    0.1200
     26 C26       -11.4933    1.5230   58.8759 C.3     1  ZINC000822206030   -0.1400
     27 C27       -10.2708    2.0136   58.0963 C.3     1  ZINC000822206030   -0.0900
     28 H28        -9.9635    3.0493   58.2417 H       1  ZINC000822206030    0.1100
     29 C29       -10.0598    1.4544   56.6878 C.3     1  ZINC000822206030   -0.1100
     30 C30       -10.2369    2.4166   55.5117 C.3     1  ZINC000822206030   -0.2000
     31 C31        -8.8372    1.9439   55.9092 C.3     1  ZINC000822206030   -0.1200
     32 H32        -8.8995    0.2298   62.0735 H       1  ZINC000822206030    0.0900
     33 H33        -9.1110   -1.0586   63.2833 H       1  ZINC000822206030    0.0700
     34 H34        -8.7621   -1.4774   61.5888 H       1  ZINC000822206030    0.0700
     35 H35       -11.3231   -0.3045   63.9450 H       1  ZINC000822206030    0.1400
     36 H36       -14.5327   -0.9013   61.1943 H       1  ZINC000822206030    0.1400
     37 H37       -12.9134   -1.3848   59.4048 H       1  ZINC000822206030    0.1400
     38 H38        -8.9630   -2.7920   58.8231 H       1  ZINC000822206030    0.1000
     39 H39        -9.8464   -3.3425   60.2670 H       1  ZINC000822206030    0.0900
     40 H40       -10.7932   -5.3257   59.3275 H       1  ZINC000822206030    0.1300
     41 H41       -12.5236   -6.3274   57.8940 H       1  ZINC000822206030    0.1400
     42 H42       -15.8116   -7.2824   54.9160 H       1  ZINC000822206030    0.4800
     43 H43       -13.1092   -2.5396   55.9807 H       1  ZINC000822206030    0.1300
     44 H44       -11.3803   -1.5524   57.4263 H       1  ZINC000822206030    0.1400
     45 H45       -12.1467    0.8014   58.3856 H       1  ZINC000822206030    0.1000
     46 H46       -11.9899    2.2360   59.5340 H       1  ZINC000822206030    0.1000
     47 H47       -10.3676    0.4189   56.5423 H       1  ZINC000822206030    0.1000
     48 H48       -10.6617    2.0145   54.5919 H       1  ZINC000822206030    0.0900
     49 H49       -10.5039    3.4482   55.7412 H       1  ZINC000822206030    0.0900
     50 H50        -8.1832    2.6646   56.4002 H       1  ZINC000822206030    0.0800
     51 H51        -8.3410    1.2308   55.2509 H       1  ZINC000822206030    0.0900
@<TRIPOS>BOND
     1     1     2    1
     2     1    32    1
     3     1    33    1
     4     1    34    1
     5     2     8   ar
     6     2     3   ar
     7     3     4   ar
     8     3    35    1
     9     4     5    1
    10     4     6   ar
    11     6     7   ar
    12     6    36    1
    13     7     8   ar
    14     7    37    1
    15     8     9    1
    16     9    10    1
    17     9    22   am
    18    10    11    1
    19    10    38    1
    20    10    39    1
    21    11    21   ar
    22    11    12   ar
    23    12    13   ar
    24    12    40    1
    25    13    14   ar
    26    13    41    1
    27    14    15    1
    28    14    20   ar
    29    15    19    1
    30    15    16    2
    31    16    17    1
    32    17    18    1
    33    17    42    1
    34    18    19    2
    35    20    21   ar
    36    20    43    1
    37    21    44    1
    38    22    23    2
    39    22    24    1
    40    24    25    1
    41    24    27    1
    42    24    26    1
    43    26    27    1
    44    26    45    1
    45    26    46    1
    46    27    28    1
    47    27    29    1
    48    29    31    1
    49    29    30    1
    50    29    47    1
    51    30    31    1
    52    30    48    1
    53    30    49    1
    54    31    50    1
    55    31    51    1
@<TRIPOS>SUBSTRUCTURE
     1 ZINC000822206030        1 TEMP              0 ****  ****    0 ROOT


##########                                Name:    ZINC000182044395
##########                DOCK_Rotatable_Bonds:                   8
##########                         Heavy_Atoms:                  28
##########                    Molecular_Weight:             398.889
##########                DOCK_Rotatable_Bonds:                   8
##########                       Formal_Charge:          -0.0399999
##########                     HBond_Acceptors:                   6
##########                        HBond_Donors:                   2
##########                         Heavy_Atoms:                  28
##########                          Grid_Score:          -31.281771
##########                     Grid_vdw_energy:          -27.768904
##########                      Grid_es_energy:           -3.512866
##########           Internal_energy_repulsive:           18.432846

@<TRIPOS>MOLECULE
ZINC000182044395
 51 53 1 0 0
SMALL
USER_CHARGES


@<TRIPOS>ATOM
      1 C1         -9.6157   -1.4030   62.4737 C.3     1  ZINC000182044395   -0.1800
      2 C2        -10.6107   -0.6293   61.6063 C.3     1  ZINC000182044395    0.0800
      3 N3        -11.9318   -0.6529   62.2392 N.pl3   1  ZINC000182044395   -0.4800
      4 C4        -12.8605   -1.4869   61.7534 C.2     1  ZINC000182044395    0.2500
      5 C5        -14.1279   -1.5700   62.2917 C.2     1  ZINC000182044395   -0.3500
      6 C6        -15.1198   -2.4997   61.7292 C.2     1  ZINC000182044395    0.5900
      7 O7        -15.6583   -3.3216   62.4463 O.2     1  ZINC000182044395   -0.5600
      8 N8        -15.4317   -2.4408   60.4193 N.am    1  ZINC000182044395   -0.7200
      9 C9        -16.4194   -3.3666   59.8592 C.3     1  ZINC000182044395    0.1100
     10 H10       -16.1846   -4.3831   60.1748 H       1  ZINC000182044395    0.0900
     11 C11       -17.8149   -2.9870   60.3586 C.3     1  ZINC000182044395   -0.1600
     12 C12       -16.3850   -3.2861   58.3317 C.3     1  ZINC000182044395    0.1100
     13 H13       -17.2456   -3.8139   57.9206 H       1  ZINC000182044395    0.1100
     14 O14       -16.4276   -1.9167   57.9258 O.3     1  ZINC000182044395   -0.5500
     15 C15       -15.0971   -3.9311   57.8159 C.3     1  ZINC000182044395   -0.1100
     16 C16       -15.3462   -4.5336   56.4572 C.ar    1  ZINC000182044395   -0.0800
     17 C17       -15.9361   -3.7759   55.4628 C.ar    1  ZINC000182044395   -0.1000
     18 C18       -16.1650   -4.3287   54.2166 C.ar    1  ZINC000182044395   -0.1200
     19 C19       -15.8034   -5.6389   53.9647 C.ar    1  ZINC000182044395   -0.1200
     20 C20       -15.2179   -6.3981   54.9605 C.ar    1  ZINC000182044395   -0.1200
     21 C21       -14.9853   -5.8440   56.2056 C.ar    1  ZINC000182044395   -0.1200
     22 C22       -14.4733   -0.7090   63.4338 C.2     1  ZINC000182044395    0.4400
     23 O23       -15.5806   -0.7412   63.9413 O.2     1  ZINC000182044395   -0.4900
     24 C24       -13.4207    0.1907   63.9418 C.ar    1  ZINC000182044395   -0.1800
     25 C25       -13.6566    1.0381   65.0239 C.ar    1  ZINC000182044395   -0.0200
     26 C26       -12.6516    1.8706   65.4684 C.ar    1  ZINC000182044395   -0.0700
     27 Cl27      -12.9376    2.9288   66.8146 Cl      1  ZINC000182044395   -0.0500
     28 C28       -11.4114    1.8657   64.8441 C.ar    1  ZINC000182044395   -0.0500
     29 C29       -11.1654    1.0330   63.7745 C.ar    1  ZINC000182044395   -0.1600
     30 C30       -12.1661    0.1843   63.3087 C.ar    1  ZINC000182044395    0.1900
     31 H31        -9.9504   -2.4351   62.5778 H       1  ZINC000182044395    0.0700
     32 H32        -8.6328   -1.3854   62.0029 H       1  ZINC000182044395    0.0800
     33 H33        -9.5553   -0.9396   63.4585 H       1  ZINC000182044395    0.0700
     34 H34       -10.6712   -1.0927   60.6216 H       1  ZINC000182044395    0.1000
     35 H35       -10.2761    0.4029   61.5023 H       1  ZINC000182044395    0.1100
     36 H36       -12.6086   -2.1157   60.9122 H       1  ZINC000182044395    0.1800
     37 H37       -15.0024   -1.7854   59.8475 H       1  ZINC000182044395    0.4100
     38 H38       -17.8394   -3.0444   61.4468 H       1  ZINC000182044395    0.0600
     39 H39       -18.0498   -1.9706   60.0429 H       1  ZINC000182044395    0.0600
     40 H40       -18.5498   -3.6758   59.9418 H       1  ZINC000182044395    0.0600
     41 H41       -17.0994   -1.3919   58.3822 H       1  ZINC000182044395    0.3700
     42 H42       -14.7797   -4.7120   58.5070 H       1  ZINC000182044395    0.0800
     43 H43       -14.3166   -3.1739   57.7400 H       1  ZINC000182044395    0.0800
     44 H44       -16.2183   -2.7522   55.6595 H       1  ZINC000182044395    0.1200
     45 H45       -16.6263   -3.7369   53.4398 H       1  ZINC000182044395    0.1200
     46 H46       -15.9822   -6.0708   52.9910 H       1  ZINC000182044395    0.1200
     47 H47       -14.9394   -7.4231   54.7651 H       1  ZINC000182044395    0.1200
     48 H48       -14.5247   -6.4361   56.9825 H       1  ZINC000182044395    0.1200
     49 H49       -14.6206    1.0422   65.5107 H       1  ZINC000182044395    0.1500
     50 H50       -10.6310    2.5215   65.2010 H       1  ZINC000182044395    0.1500
     51 H51       -10.1964    1.0383   63.2976 H       1  ZINC000182044395    0.1500
@<TRIPOS>BOND
     1     1     2    1
     2     1    31    1
     3     1    32    1
     4     1    33    1
     5     2     3    1
     6     2    34    1
     7     2    35    1
     8     3    30    1
     9     3     4    1
    10     4     5    2
    11     4    36    1
    12     5     6    1
    13     5    22    1
    14     6     7    2
    15     6     8   am
    16     8     9    1
    17     8    37    1
    18     9    10    1
    19     9    11    1
    20     9    12    1
    21    11    38    1
    22    11    39    1
    23    11    40    1
    24    12    13    1
    25    12    14    1
    26    12    15    1
    27    14    41    1
    28    15    16    1
    29    15    42    1
    30    15    43    1
    31    16    21   ar
    32    16    17   ar
    33    17    18   ar
    34    17    44    1
    35    18    19   ar
    36    18    45    1
    37    19    20   ar
    38    19    46    1
    39    20    21   ar
    40    20    47    1
    41    21    48    1
    42    22    23    2
    43    22    24    1
    44    24    30   ar
    45    24    25   ar
    46    25    26   ar
    47    25    49    1
    48    26    27    1
    49    26    28   ar
    50    28    29   ar
    51    28    50    1
    52    29    30   ar
    53    29    51    1
@<TRIPOS>SUBSTRUCTURE
     1 ZINC000182044395        1 TEMP              0 ****  ****    0 ROOT


##########                                Name:    ZINC000477589488
##########                DOCK_Rotatable_Bonds:                   6
##########                         Heavy_Atoms:                  32
##########                    Molecular_Weight:             423.517
##########                DOCK_Rotatable_Bonds:                   6
##########                       Formal_Charge:        -8.19564e-07
##########                     HBond_Acceptors:                   6
##########                        HBond_Donors:                   1
##########                         Heavy_Atoms:                  32
##########                          Grid_Score:          -31.257721
##########                     Grid_vdw_energy:          -29.701258
##########                      Grid_es_energy:           -1.556463
##########           Internal_energy_repulsive:           25.127127

@<TRIPOS>MOLECULE
ZINC000477589488
 57 61 1 0 0
SMALL
USER_CHARGES


@<TRIPOS>ATOM
      1 O1         -9.5466   -2.4036   58.1471 O.2     1  ZINC000477589488   -0.5800
      2 C2        -10.5899   -2.0849   58.6841 C.2     1  ZINC000477589488    0.7100
      3 N3        -11.6733   -1.7986   57.9354 N.am    1  ZINC000477589488   -0.7400
      4 C4        -11.5923   -1.8653   56.4741 C.3     1  ZINC000477589488    0.2500
      5 H5        -10.9341   -2.6843   56.1838 H       1  ZINC000477589488    0.1100
      6 C6        -11.0434   -0.5668   55.9415 C.ar    1  ZINC000477589488   -0.0900
      7 C7        -11.0853    0.5732   56.7224 C.ar    1  ZINC000477589488   -0.1000
      8 C8        -10.5818    1.7643   56.2339 C.ar    1  ZINC000477589488   -0.1200
      9 C9        -10.0360    1.8154   54.9648 C.ar    1  ZINC000477589488   -0.1200
     10 C10        -9.9933    0.6752   54.1844 C.ar    1  ZINC000477589488   -0.1200
     11 C11       -10.4929   -0.5170   54.6746 C.ar    1  ZINC000477589488   -0.1000
     12 C12       -12.9677   -2.1004   55.9049 C.ar    1  ZINC000477589488   -0.0700
     13 C13       -13.5758   -3.3613   56.0252 C.ar    1  ZINC000477589488   -0.0400
     14 C14       -12.9261   -4.4262   56.6725 C.ar    1  ZINC000477589488   -0.1100
     15 C15       -13.5461   -5.6336   56.7704 C.ar    1  ZINC000477589488   -0.1100
     16 C16       -14.8185   -5.8324   56.2370 C.ar    1  ZINC000477589488   -0.1100
     17 C17       -15.4778   -4.8248   55.6030 C.ar    1  ZINC000477589488   -0.1100
     18 C18       -14.8699   -3.5632   55.4832 C.ar    1  ZINC000477589488   -0.0500
     19 C19       -15.5195   -2.4987   54.8361 C.ar    1  ZINC000477589488   -0.1000
     20 C20       -14.8998   -1.2905   54.7394 C.ar    1  ZINC000477589488   -0.1100
     21 C21       -13.6298   -1.0905   55.2765 C.ar    1  ZINC000477589488   -0.1100
     22 N22       -10.6644   -2.0235   60.0284 N.am    1  ZINC000477589488   -0.6300
     23 C23        -9.4926   -2.3262   60.8641 C.3     1  ZINC000477589488    0.1300
     24 C24        -9.2925   -1.1762   61.8568 C.3     1  ZINC000477589488    0.0500
     25 N25       -10.5411   -0.9494   62.5967 N.3     1  ZINC000477589488   -0.4700
     26 C26       -10.3540   -0.0250   63.6185 C.ar    1  ZINC000477589488    0.2500
     27 C27       -10.5848    1.3306   63.3878 C.ar    1  ZINC000477589488   -0.1300
     28 C28       -10.3837    2.2111   64.4392 C.ar    1  ZINC000477589488   -0.0900
     29 C29        -9.9657    1.6902   65.6556 C.ar    1  ZINC000477589488    0.0200
     30 N30        -9.7714    0.3927   65.7854 N.ar    1  ZINC000477589488   -0.2200
     31 N31        -9.9608   -0.4290   64.8179 N.ar    1  ZINC000477589488   -0.2800
     32 C32       -11.6242   -0.5285   61.6979 C.3     1  ZINC000477589488    0.0400
     33 C33       -11.9181   -1.6462   60.6984 C.3     1  ZINC000477589488    0.1200
     34 H34       -12.5067   -1.5483   58.3639 H       1  ZINC000477589488    0.3900
     35 H35       -11.5117    0.5333   57.7137 H       1  ZINC000477589488    0.1100
     36 H36       -10.6152    2.6551   56.8436 H       1  ZINC000477589488    0.1200
     37 H37        -9.6434    2.7461   54.5830 H       1  ZINC000477589488    0.1200
     38 H38        -9.5672    0.7151   53.1928 H       1  ZINC000477589488    0.1200
     39 H39       -10.4595   -1.4078   54.0649 H       1  ZINC000477589488    0.1200
     40 H40       -11.9398   -4.2871   57.0900 H       1  ZINC000477589488    0.1300
     41 H41       -13.0447   -6.4502   57.2684 H       1  ZINC000477589488    0.1300
     42 H42       -15.2880   -6.8007   56.3281 H       1  ZINC000477589488    0.1300
     43 H43       -16.4630   -4.9937   55.1941 H       1  ZINC000477589488    0.1300
     44 H44       -16.5051   -2.6383   54.4173 H       1  ZINC000477589488    0.1300
     45 H45       -15.4013   -0.4739   54.2411 H       1  ZINC000477589488    0.1300
     46 H46       -13.1606   -0.1220   55.1864 H       1  ZINC000477589488    0.1200
     47 H47        -9.6615   -3.2551   61.4089 H       1  ZINC000477589488    0.0800
     48 H48        -8.6087   -2.4238   60.2337 H       1  ZINC000477589488    0.1100
     49 H49        -8.4969   -1.4336   62.5561 H       1  ZINC000477589488    0.1000
     50 H50        -9.0215   -0.2705   61.3143 H       1  ZINC000477589488    0.0600
     51 H51       -10.9095    1.6834   62.4201 H       1  ZINC000477589488    0.1500
     52 H52       -10.5473    3.2714   64.3153 H       1  ZINC000477589488    0.1500
     53 H53        -9.7991    2.3477   66.4959 H       1  ZINC000477589488    0.1700
     54 H54       -12.5197   -0.3162   62.2819 H       1  ZINC000477589488    0.1000
     55 H55       -11.3207    0.3682   61.1577 H       1  ZINC000477589488    0.0600
     56 H56       -12.6391   -1.2962   59.9597 H       1  ZINC000477589488    0.0800
     57 H57       -12.3199   -2.5118   61.2250 H       1  ZINC000477589488    0.0900
@<TRIPOS>BOND
     1     1     2    2
     2     2     3   am
     3     2    22   am
     4     3     4    1
     5     3    34    1
     6     4     5    1
     7     4     6    1
     8     4    12    1
     9     6    11   ar
    10     6     7   ar
    11     7     8   ar
    12     7    35    1
    13     8     9   ar
    14     8    36    1
    15     9    10   ar
    16     9    37    1
    17    10    11   ar
    18    10    38    1
    19    11    39    1
    20    12    21   ar
    21    12    13   ar
    22    13    18   ar
    23    13    14   ar
    24    14    15   ar
    25    14    40    1
    26    15    16   ar
    27    15    41    1
    28    16    17   ar
    29    16    42    1
    30    17    18   ar
    31    17    43    1
    32    18    19   ar
    33    19    20   ar
    34    19    44    1
    35    20    21   ar
    36    20    45    1
    37    21    46    1
    38    22    33    1
    39    22    23    1
    40    23    24    1
    41    23    47    1
    42    23    48    1
    43    24    25    1
    44    24    49    1
    45    24    50    1
    46    25    26    1
    47    25    32    1
    48    26    31   ar
    49    26    27   ar
    50    27    28   ar
    51    27    51    1
    52    28    29   ar
    53    28    52    1
    54    29    30   ar
    55    29    53    1
    56    30    31   ar
    57    32    33    1
    58    32    54    1
    59    32    55    1
    60    33    56    1
    61    33    57    1
@<TRIPOS>SUBSTRUCTURE
     1 ZINC000477589488        1 TEMP              0 ****  ****    0 ROOT


##########                                Name:     oleObject79.pdb
##########                DOCK_Rotatable_Bonds:                  12
##########                         Heavy_Atoms:                  53
##########                    Molecular_Weight:             725.376
##########                DOCK_Rotatable_Bonds:                  12
##########                       Formal_Charge:          0.00050066
##########                     HBond_Acceptors:                   8
##########                        HBond_Donors:                   4
##########                         Heavy_Atoms:                  53
##########                          Grid_Score:          -31.216789
##########                     Grid_vdw_energy:          -30.633564
##########                      Grid_es_energy:           -0.583226
##########           Internal_energy_repulsive:           39.482796

@<TRIPOS>MOLECULE
oleObject79.pdb
 102 108 1 0 0
SMALL
NO_CHARGES


@<TRIPOS>ATOM
      1 C         -12.0770    0.4463   64.3566 C.ar    1  UNL        -0.0620
      2 C         -10.9458   -0.2346   63.8856 C.ar    1  UNL        -0.0590
      3 C         -10.8274   -0.5829   62.5259 C.ar    1  UNL        -0.0456
      4 C         -11.8641   -0.2388   61.6182 C.ar    1  UNL        -0.0185
      5 C         -12.9949    0.4471   62.1122 C.ar    1  UNL        -0.0565
      6 C         -13.1032    0.7872   63.4681 C.ar    1  UNL        -0.0619
      7 C         -11.7668   -0.5448   60.1099 C.3     1  UNL         0.0931
      8 C         -12.8267   -1.5248   59.5729 C.ar    1  UNL         0.0683
      9 C         -12.7081   -2.1071   58.2849 C.ar    1  UNL        -0.0272
     10 C         -13.7121   -2.9952   57.8549 C.ar    1  UNL        -0.0559
     11 C         -14.7887   -3.2757   58.7083 C.ar    1  UNL        -0.0435
     12 C         -14.8263   -2.6577   59.9666 C.ar    1  UNL         0.0272
     13 N         -13.8718   -1.8063   60.3858 N.ar    1  UNL        -0.2587
     14 C         -11.5362   -1.8027   57.3573 C.3     1  UNL        -0.0379
     15 N         -11.6171    0.7047   59.3125 N.am    1  UNL        -0.2918
     16 C         -12.7420    1.4408   58.9340 C.2     1  UNL         0.2179
     17 O         -13.8481    0.9273   58.9648 O.2     1  UNL        -0.2772
     18 C         -12.4834    2.7277   58.1049 C.3     1  UNL         0.0361
     19 C         -13.5756    3.8168   58.3077 C.3     1  UNL        -0.0412
     20 C         -14.9243    3.4904   57.6087 C.3     1  UNL        -0.0453
     21 C         -14.7931    3.1047   56.1050 C.3     1  UNL        -0.0139
     22 C         -16.1396    2.4866   55.6364 C.3     1  UNL         0.0171
     23 N         -16.1145    2.1946   54.1888 N.pl3   1  UNL        -0.3290
     24 C         -15.9169    3.3852   53.3390 C.3     1  UNL         0.0115
     25 C         -14.6084    4.1161   53.7217 C.3     1  UNL        -0.0368
     26 C         -14.5190    4.3806   55.2458 C.3     1  UNL        -0.0446
     27 C         -16.4804    0.9421   53.6847 C.ar    1  UNL         0.0476
     28 C         -17.6994    0.3696   54.0974 C.ar    1  UNL        -0.0375
     29 C         -18.0934   -0.8977   53.6412 C.ar    1  UNL        -0.0388
     30 C         -17.2671   -1.6336   52.7782 C.ar    1  UNL         0.0318
     31 C         -16.0560   -1.0619   52.3469 C.ar    1  UNL        -0.0202
     32 C         -15.6584    0.2088   52.7963 C.ar    1  UNL         0.0636
     33 CL        -14.0907    0.7894   52.2611 Cl      1  UNL        -0.0822
     34 N         -17.6911   -2.8886   52.3461 N.pl3   1  UNL        -0.3149
     35 C         -17.7005   -3.4767   51.0824 C.ar    1  UNL         0.0302
     36 C         -17.0088   -4.6702   50.8050 C.ar    1  UNL        -0.0402
     37 C         -17.0636   -5.2471   49.5261 C.ar    1  UNL        -0.0525
     38 C         -17.8177   -4.6553   48.4825 C.ar    1  UNL        -0.0182
     39 C         -18.5228   -3.4639   48.7847 C.ar    1  UNL        -0.0525
     40 C         -18.4714   -2.8904   50.0657 C.ar    1  UNL        -0.0402
     41 C         -17.8768   -5.2706   47.1144 C.ar    1  UNL        -0.0177
     42 C         -17.1779   -6.4679   46.8152 C.ar    1  UNL        -0.0439
     43 C         -17.2204   -7.0581   45.5331 C.ar    1  UNL         0.0111
     44 C         -17.9820   -6.4307   44.5257 C.ar    1  UNL        -0.0518
     45 C         -18.6831   -5.2470   44.7968 C.ar    1  UNL        -0.0609
     46 C         -18.6322   -4.6740   46.0757 C.ar    1  UNL        -0.0543
     47 C         -16.5247   -8.2421   45.2681 C.2     1  UNL         0.1014
     48 N         -16.5453   -8.8058   44.1166 N.3     1  UNL        -0.2892
     49 N         -15.8041   -8.8447   46.2237 N.3     1  UNL        -0.2870
     50 C         -13.6693    2.0344   55.9411 C.3     1  UNL        -0.0453
     51 C         -12.3280    2.4392   56.5890 C.3     1  UNL        -0.0412
     52 C         -10.2489    1.1493   58.9677 C.3     1  UNL         0.0037
     53 C          -9.5595   -1.3034   62.0797 C.3     1  UNL        -0.0394
     54 H         -12.1569    0.7130   65.4060 H       1  UNL         0.0623
     55 H         -10.1524   -0.4876   64.5829 H       1  UNL         0.0626
     56 H         -13.8004    0.7227   61.4398 H       1  UNL         0.0627
     57 H         -13.9804    1.3170   63.8276 H       1  UNL         0.0623
     58 H         -10.8327   -1.0914   59.9707 H       1  UNL         0.0626
     59 H         -13.6594   -3.4621   56.8755 H       1  UNL         0.0627
     60 H         -15.5763   -3.9580   58.4026 H       1  UNL         0.0639
     61 H         -15.6436   -2.8494   60.6608 H       1  UNL         0.0840
     62 H         -11.4959   -0.7361   57.1055 H       1  UNL         0.0280
     63 H         -11.6134   -2.3567   56.4136 H       1  UNL         0.0280
     64 H         -10.5806   -2.0796   57.8193 H       1  UNL         0.0280
     65 H         -11.5391    3.1493   58.4703 H       1  UNL         0.0401
     66 H         -13.1982    4.7691   57.9141 H       1  UNL         0.0275
     67 H         -13.7459    3.9778   59.3800 H       1  UNL         0.0275
     68 H         -15.6016    4.3473   57.7175 H       1  UNL         0.0273
     69 H         -15.4120    2.6673   58.1441 H       1  UNL         0.0273
     70 H         -16.9585    3.1854   55.8516 H       1  UNL         0.0474
     71 H         -16.3301    1.5679   56.2066 H       1  UNL         0.0474
     72 H         -16.7623    4.0706   53.4813 H       1  UNL         0.0468
     73 H         -15.8923    3.1116   52.2771 H       1  UNL         0.0468
     74 H         -14.5478    5.0672   53.1782 H       1  UNL         0.0283
     75 H         -13.7462    3.5205   53.3992 H       1  UNL         0.0283
     76 H         -15.2650    5.1458   55.4977 H       1  UNL         0.0273
     77 H         -13.5431    4.8189   55.4845 H       1  UNL         0.0273
     78 H         -18.3538    0.9134   54.7725 H       1  UNL         0.0644
     79 H         -19.0394   -1.3157   53.9740 H       1  UNL         0.0643
     80 H         -15.4153   -1.6000   51.6553 H       1  UNL         0.0659
     81 H         -18.0364   -3.4881   53.0846 H       1  UNL         0.1528
     82 H         -16.4400   -5.1692   51.5819 H       1  UNL         0.0643
     83 H         -16.5022   -6.1585   49.3458 H       1  UNL         0.0630
     84 H         -19.1355   -2.9858   48.0269 H       1  UNL         0.0630
     85 H         -19.0301   -1.9807   50.2666 H       1  UNL         0.0643
     86 H         -16.5992   -6.9495   47.5972 H       1  UNL         0.0637
     87 H         -18.0456   -6.8631   43.5310 H       1  UNL         0.0630
     88 H         -19.2667   -4.7716   44.0134 H       1  UNL         0.0623
     89 H         -19.1705   -3.7481   46.2531 H       1  UNL         0.0629
     90 H         -16.6639   -8.1110   43.3763 H       1  UNL         0.1889
     91 H         -14.9795   -9.3867   45.9720 H       1  UNL         0.1258
     92 H         -15.5861   -8.3393   47.0806 H       1  UNL         0.1258
     93 H         -13.4971    1.7979   54.8852 H       1  UNL         0.0273
     94 H         -14.0065    1.0990   56.4022 H       1  UNL         0.0273
     95 H         -11.9319    3.3309   56.0888 H       1  UNL         0.0275
     96 H         -11.5879    1.6519   56.4125 H       1  UNL         0.0275
     97 H         -10.1607    1.3384   57.8921 H       1  UNL         0.0433
     98 H          -9.5012    0.3943   59.2361 H       1  UNL         0.0433
     99 H         -10.0218    2.0751   59.5105 H       1  UNL         0.0433
    100 H          -8.9080   -1.5452   62.9287 H       1  UNL         0.0280
    101 H          -8.9768   -0.6809   61.3891 H       1  UNL         0.0280
    102 H          -9.7980   -2.2475   61.5740 H       1  UNL         0.0280
@<TRIPOS>BOND
     1     1     2   ar
     2     1     6   ar
     3     1    54    1
     4     2     3   ar
     5     2    55    1
     6     3     4   ar
     7     3    53    1
     8     4     5   ar
     9     4     7    1
    10     5     6   ar
    11     5    56    1
    12     6    57    1
    13     7     8    1
    14     7    15    1
    15     7    58    1
    16     8     9   ar
    17     8    13   ar
    18     9    10   ar
    19     9    14    1
    20    10    11   ar
    21    10    59    1
    22    11    12   ar
    23    11    60    1
    24    12    13   ar
    25    12    61    1
    26    14    62    1
    27    14    63    1
    28    14    64    1
    29    15    16   am
    30    15    52    1
    31    16    17    2
    32    16    18    1
    33    18    19    1
    34    18    51    1
    35    18    65    1
    36    19    20    1
    37    19    66    1
    38    19    67    1
    39    20    21    1
    40    20    68    1
    41    20    69    1
    42    21    22    1
    43    21    26    1
    44    21    50    1
    45    22    23    1
    46    22    70    1
    47    22    71    1
    48    23    24    1
    49    23    27    1
    50    24    25    1
    51    24    72    1
    52    24    73    1
    53    25    26    1
    54    25    74    1
    55    25    75    1
    56    26    76    1
    57    26    77    1
    58    27    28   ar
    59    27    32   ar
    60    28    29   ar
    61    28    78    1
    62    29    30   ar
    63    29    79    1
    64    30    31   ar
    65    30    34    1
    66    31    32   ar
    67    31    80    1
    68    32    33    1
    69    34    35    1
    70    34    81    1
    71    35    36   ar
    72    35    40   ar
    73    36    37   ar
    74    36    82    1
    75    37    38   ar
    76    37    83    1
    77    38    39   ar
    78    38    41    1
    79    39    40   ar
    80    39    84    1
    81    40    85    1
    82    41    42   ar
    83    41    46   ar
    84    42    43   ar
    85    42    86    1
    86    43    44   ar
    87    43    47    1
    88    44    45   ar
    89    44    87    1
    90    45    46   ar
    91    45    88    1
    92    46    89    1
    93    47    48    1
    94    47    49    1
    95    48    90    1
    96    49    91    1
    97    49    92    1
    98    50    51    1
    99    50    93    1
   100    50    94    1
   101    51    95    1
   102    51    96    1
   103    52    97    1
   104    52    98    1
   105    52    99    1
   106    53   100    1
   107    53   101    1
   108    53   102    1
@<TRIPOS>SUBSTRUCTURE
     1 UNL         1 TEMP              0 ****  ****    0 ROOT


##########                                Name:    ZINC000637608314
##########                DOCK_Rotatable_Bonds:                   9
##########                         Heavy_Atoms:                  28
##########                    Molecular_Weight:             387.479
##########                DOCK_Rotatable_Bonds:                   9
##########                       Formal_Charge:           0.0499991
##########                     HBond_Acceptors:                   7
##########                        HBond_Donors:                   2
##########                         Heavy_Atoms:                  28
##########                          Grid_Score:          -31.197693
##########                     Grid_vdw_energy:          -29.588909
##########                      Grid_es_energy:           -1.608784
##########           Internal_energy_repulsive:           16.511440

@<TRIPOS>MOLECULE
ZINC000637608314
 57 59 1 0 0
SMALL
USER_CHARGES


@<TRIPOS>ATOM
      1 C1         -1.2063   -0.0252   44.8004 C.3     1  ZINC000637608314   -0.1400
      2 C2         -0.1720    0.8772   45.4765 C.3     1  ZINC000637608314   -0.0400
      3 C3          1.0985    0.0733   45.7600 C.3     1  ZINC000637608314   -0.1500
      4 C4          0.1622    2.0505   44.5531 C.3     1  ZINC000637608314   -0.1500
      5 C5         -0.7340    1.4021   46.7725 C.2     1  ZINC000637608314    0.1900
      6 C6         -1.2648    0.5395   47.6702 C.2     1  ZINC000637608314   -0.2400
      7 C7         -1.7893    1.0210   48.8780 C.2     1  ZINC000637608314    0.0200
      8 C8         -1.7566    2.3607   49.1320 C.2     1  ZINC000637608314   -0.2400
      9 C9         -2.3131    2.9047   50.4226 C.3     1  ZINC000637608314    0.2100
     10 N10        -1.2147    3.1692   51.3550 N.am    1  ZINC000637608314   -0.7300
     11 C11        -1.4380    3.8880   52.4730 C.2     1  ZINC000637608314    0.7100
     12 O12        -2.5508    4.3182   52.7069 O.2     1  ZINC000637608314   -0.5900
     13 N13        -0.4277    4.1300   53.3317 N.am    1  ZINC000637608314   -0.6200
     14 C14        -0.6709    4.9099   54.5477 C.3     1  ZINC000637608314    0.2000
     15 C15        -1.2182    4.0067   55.6228 C.2     1  ZINC000637608314   -0.0400
     16 C16        -0.4889    3.3279   56.5265 C.2     1  ZINC000637608314   -0.1900
     17 C17        -1.4016    2.6136   57.3362 C.2     1  ZINC000637608314   -0.2200
     18 C18        -2.6341    2.8987   56.8790 C.2     1  ZINC000637608314   -0.0300
     19 O19        -2.5171    3.7475   55.8447 O.3     1  ZINC000637608314   -0.1700
     20 C20         0.9136    3.6132   53.0489 C.3     1  ZINC000637608314    0.1300
     21 C21         1.8368    4.7721   52.6677 C.3     1  ZINC000637608314    0.0700
     22 H22         1.7289    5.5829   53.3880 H       1  ZINC000637608314    0.0900
     23 C23         1.4849    5.2784   51.2524 C.3     1  ZINC000637608314   -0.1500
     24 C24         2.8856    5.5741   50.6503 C.3     1  ZINC000637608314   -0.1600
     25 C25         3.7326    4.4601   51.3152 C.3     1  ZINC000637608314    0.0500
     26 O26         3.1965    4.3221   52.6427 O.3     1  ZINC000637608314   -0.3800
     27 C27        -1.1981    3.2284   48.1779 C.2     1  ZINC000637608314    0.5300
     28 O28        -1.1621    4.4294   48.3928 O.2     1  ZINC000637608314   -0.5400
     29 N29        -0.6973    2.7347   47.0296 N.am    1  ZINC000637608314   -0.6000
     30 H30        -1.4443   -0.8611   45.4581 H       1  ZINC000637608314    0.0700
     31 H31        -2.1113    0.5476   44.5984 H       1  ZINC000637608314    0.0700
     32 H32        -0.7998   -0.4048   43.8630 H       1  ZINC000637608314    0.0700
     33 H33         1.5050   -0.3063   44.8225 H       1  ZINC000637608314    0.0700
     34 H34         1.8354    0.7162   46.2415 H       1  ZINC000637608314    0.0600
     35 H35         0.8605   -0.7626   46.4177 H       1  ZINC000637608314    0.0700
     36 H36        -0.7429    2.6233   44.3512 H       1  ZINC000637608314    0.0700
     37 H37         0.8991    2.6933   45.0348 H       1  ZINC000637608314    0.0600
     38 H38         0.5687    1.6709   43.6157 H       1  ZINC000637608314    0.0700
     39 H39        -1.2846   -0.5190   47.4563 H       1  ZINC000637608314    0.1500
     40 H40        -2.2148    0.3387   49.5989 H       1  ZINC000637608314    0.1400
     41 H41        -2.8521    3.8310   50.2239 H       1  ZINC000637608314    0.0800
     42 H42        -2.9940    2.1750   50.8608 H       1  ZINC000637608314    0.0800
     43 H43        -0.3265    2.8269   51.1678 H       1  ZINC000637608314    0.4000
     44 H44         0.2647    5.3540   54.8878 H       1  ZINC000637608314    0.1200
     45 H45        -1.3915    5.6995   54.3349 H       1  ZINC000637608314    0.0900
     46 H46         0.5874    3.3279   56.6159 H       1  ZINC000637608314    0.1500
     47 H47        -1.1563    1.9636   58.1630 H       1  ZINC000637608314    0.1500
     48 H48        -3.5607    2.5136   57.2783 H       1  ZINC000637608314    0.2000
     49 H49         1.3047    3.1135   53.9352 H       1  ZINC000637608314    0.0800
     50 H50         0.8627    2.9026   52.2239 H       1  ZINC000637608314    0.1000
     51 H51         0.9719    4.5053   50.6802 H       1  ZINC000637608314    0.0800
     52 H52         0.8849    6.1870   51.3035 H       1  ZINC000637608314    0.0900
     53 H53         2.8774    5.4669   49.5655 H       1  ZINC000637608314    0.0800
     54 H54         3.2380    6.5632   50.9428 H       1  ZINC000637608314    0.0800
     55 H55         3.6272    3.5252   50.7648 H       1  ZINC000637608314    0.0600
     56 H56         4.7804    4.7575   51.3603 H       1  ZINC000637608314    0.0800
     57 H57        -0.3128    3.3388   46.3753 H       1  ZINC000637608314    0.4100
@<TRIPOS>BOND
     1     1     2    1
     2     1    30    1
     3     1    31    1
     4     1    32    1
     5     2     3    1
     6     2     4    1
     7     2     5    1
     8     3    33    1
     9     3    34    1
    10     3    35    1
    11     4    36    1
    12     4    37    1
    13     4    38    1
    14     5    29    1
    15     5     6    2
    16     6     7    1
    17     6    39    1
    18     7     8    2
    19     7    40    1
    20     8     9    1
    21     8    27    1
    22     9    10    1
    23     9    41    1
    24     9    42    1
    25    10    11   am
    26    10    43    1
    27    11    12    2
    28    11    13   am
    29    13    14    1
    30    13    20    1
    31    14    15    1
    32    14    44    1
    33    14    45    1
    34    15    19    1
    35    15    16    2
    36    16    17    1
    37    16    46    1
    38    17    18    2
    39    17    47    1
    40    18    19    1
    41    18    48    1
    42    20    21    1
    43    20    49    1
    44    20    50    1
    45    21    22    1
    46    21    26    1
    47    21    23    1
    48    23    24    1
    49    23    51    1
    50    23    52    1
    51    24    25    1
    52    24    53    1
    53    24    54    1
    54    25    26    1
    55    25    55    1
    56    25    56    1
    57    27    28    2
    58    27    29   am
    59    29    57    1
@<TRIPOS>SUBSTRUCTURE
     1 ZINC000637608314        1 TEMP              0 ****  ****    0 ROOT


##########                                Name:    ZINC000484900616
##########                DOCK_Rotatable_Bonds:                  10
##########                         Heavy_Atoms:                  29
##########                    Molecular_Weight:             415.556
##########                DOCK_Rotatable_Bonds:                  10
##########                       Formal_Charge:        -1.49012e-08
##########                     HBond_Acceptors:                   7
##########                        HBond_Donors:                   1
##########                         Heavy_Atoms:                  29
##########                          Grid_Score:          -31.179497
##########                     Grid_vdw_energy:          -31.390942
##########                      Grid_es_energy:            0.211445
##########           Internal_energy_repulsive:           12.690211

@<TRIPOS>MOLECULE
ZINC000484900616
 58 60 1 0 0
SMALL
USER_CHARGES


@<TRIPOS>ATOM
      1 C1        -11.4412    0.7903   64.7667 C.3     1  ZINC000484900616   -0.1500
      2 C2        -10.0649    0.8076   64.0988 C.3     1  ZINC000484900616    0.0600
      3 O3        -10.2121    0.5363   62.6799 O.3     1  ZINC000484900616   -0.3400
      4 C4         -9.7723   -0.6582   62.2364 C.2     1  ZINC000484900616    0.5500
      5 O5         -9.4181   -1.5082   63.0299 O.2     1  ZINC000484900616   -0.5000
      6 C6         -9.7210   -0.9332   60.7921 C.2     1  ZINC000484900616    0.0200
      7 C7         -9.2933   -2.1090   60.2775 C.2     1  ZINC000484900616   -0.2400
      8 S8         -9.3868   -2.0312   58.5724 S.3     1  ZINC000484900616    0.2900
      9 C9         -9.9906   -0.4355   58.6444 C.2     1  ZINC000484900616    0.0300
     10 C10       -10.3532    0.3998   57.4434 C.3     1  ZINC000484900616    0.1500
     11 H11       -10.8387    1.3238   57.7573 H       1  ZINC000484900616    0.0900
     12 C12        -9.0901    0.7128   56.6031 C.3     1  ZINC000484900616   -0.1200
     13 C13        -9.7029    0.9756   55.2023 C.3     1  ZINC000484900616   -0.1400
     14 C14       -10.8759   -0.0254   55.1425 C.3     1  ZINC000484900616    0.0500
     15 N15       -11.2355   -0.3620   56.5340 N.3     1  ZINC000484900616   -0.5100
     16 C16       -12.6503   -0.0680   56.7980 C.3     1  ZINC000484900616    0.0300
     17 C17       -13.3208   -1.2931   57.3644 C.2     1  ZINC000484900616    0.5200
     18 O18       -13.1284   -1.6105   58.5190 O.2     1  ZINC000484900616   -0.5100
     19 N19       -14.1342   -2.0358   56.5879 N.am    1  ZINC000484900616   -0.7300
     20 C20       -14.7873   -3.2258   57.1390 C.3     1  ZINC000484900616    0.1900
     21 H21       -14.1449   -3.6750   57.8963 H       1  ZINC000484900616    0.1000
     22 C22       -16.1217   -2.8275   57.7730 C.3     1  ZINC000484900616   -0.1600
     23 C23       -15.0333   -4.2209   56.0344 C.ar    1  ZINC000484900616   -0.1000
     24 C24       -14.7943   -5.5654   56.2494 C.ar    1  ZINC000484900616   -0.1100
     25 C25       -15.0199   -6.4782   55.2361 C.ar    1  ZINC000484900616   -0.1100
     26 C26       -15.4849   -6.0467   54.0079 C.ar    1  ZINC000484900616   -0.0800
     27 C27       -15.7305   -7.0417   52.9031 C.3     1  ZINC000484900616   -0.0900
     28 C28       -17.1800   -7.5272   52.9669 C.3     1  ZINC000484900616   -0.1500
     29 C29       -15.7252   -4.7024   53.7933 C.ar    1  ZINC000484900616   -0.1100
     30 C30       -15.5032   -3.7900   54.8079 C.ar    1  ZINC000484900616   -0.1000
     31 N31       -10.0979   -0.0472   59.8658 N.2     1  ZINC000484900616   -0.4300
     32 H32       -12.0743    1.5538   64.3146 H       1  ZINC000484900616    0.0700
     33 H33       -11.8993   -0.1893   64.6298 H       1  ZINC000484900616    0.0700
     34 H34       -11.3308    0.9940   65.8319 H       1  ZINC000484900616    0.0800
     35 H35        -9.6069    1.7871   64.2357 H       1  ZINC000484900616    0.0700
     36 H36        -9.4319    0.0441   64.5509 H       1  ZINC000484900616    0.0700
     37 H37        -8.9492   -2.9576   60.8501 H       1  ZINC000484900616    0.1900
     38 H38        -8.5808    1.6001   56.9792 H       1  ZINC000484900616    0.0900
     39 H39        -8.4149   -0.1425   56.5797 H       1  ZINC000484900616    0.0800
     40 H40       -10.0666    2.0004   55.1269 H       1  ZINC000484900616    0.0700
     41 H41        -8.9760    0.7648   54.4179 H       1  ZINC000484900616    0.0800
     42 H42       -11.7287    0.4321   54.6412 H       1  ZINC000484900616    0.0600
     43 H43       -10.5686   -0.9253   54.6097 H       1  ZINC000484900616    0.0900
     44 H44       -12.7239    0.7504   57.5141 H       1  ZINC000484900616    0.1100
     45 H45       -13.1416    0.2178   55.8679 H       1  ZINC000484900616    0.0700
     46 H46       -14.2870   -1.7827   55.6641 H       1  ZINC000484900616    0.4000
     47 H47       -16.6077   -3.7128   58.1830 H       1  ZINC000484900616    0.0700
     48 H48       -15.9437   -2.1078   58.5720 H       1  ZINC000484900616    0.0700
     49 H49       -16.7640   -2.3783   57.0157 H       1  ZINC000484900616    0.0600
     50 H50       -14.4310   -5.9026   57.2089 H       1  ZINC000484900616    0.1200
     51 H51       -14.8325   -7.5286   55.4039 H       1  ZINC000484900616    0.1200
     52 H52       -15.5485   -6.5665   51.9391 H       1  ZINC000484900616    0.0700
     53 H53       -15.0573   -7.8907   53.0226 H       1  ZINC000484900616    0.0700
     54 H54       -17.3619   -8.0024   53.9309 H       1  ZINC000484900616    0.0600
     55 H55       -17.8531   -6.6783   52.8474 H       1  ZINC000484900616    0.0600
     56 H56       -17.3575   -8.2470   52.1678 H       1  ZINC000484900616    0.0600
     57 H57       -16.0889   -4.3652   52.8339 H       1  ZINC000484900616    0.1200
     58 H58       -15.6910   -2.7397   54.6402 H       1  ZINC000484900616    0.1200
@<TRIPOS>BOND
     1     1     2    1
     2     1    32    1
     3     1    33    1
     4     1    34    1
     5     2     3    1
     6     2    35    1
     7     2    36    1
     8     3     4    1
     9     4     5    2
    10     4     6    1
    11     6    31    1
    12     6     7    2
    13     7     8    1
    14     7    37    1
    15     8     9    1
    16     9    10    1
    17     9    31    2
    18    10    11    1
    19    10    15    1
    20    10    12    1
    21    12    13    1
    22    12    38    1
    23    12    39    1
    24    13    14    1
    25    13    40    1
    26    13    41    1
    27    14    15    1
    28    14    42    1
    29    14    43    1
    30    15    16    1
    31    16    17    1
    32    16    44    1
    33    16    45    1
    34    17    18    2
    35    17    19   am
    36    19    20    1
    37    19    46    1
    38    20    21    1
    39    20    22    1
    40    20    23    1
    41    22    47    1
    42    22    48    1
    43    22    49    1
    44    23    30   ar
    45    23    24   ar
    46    24    25   ar
    47    24    50    1
    48    25    26   ar
    49    25    51    1
    50    26    27    1
    51    26    29   ar
    52    27    28    1
    53    27    52    1
    54    27    53    1
    55    28    54    1
    56    28    55    1
    57    28    56    1
    58    29    30   ar
    59    29    57    1
    60    30    58    1
@<TRIPOS>SUBSTRUCTURE
     1 ZINC000484900616        1 TEMP              0 ****  ****    0 ROOT


##########                                Name:    ZINC001296589646
##########                DOCK_Rotatable_Bonds:                   8
##########                         Heavy_Atoms:                  29
##########                    Molecular_Weight:             398.548
##########                DOCK_Rotatable_Bonds:                   8
##########                       Formal_Charge:          -0.0200008
##########                     HBond_Acceptors:                   6
##########                        HBond_Donors:                   0
##########                         Heavy_Atoms:                  29
##########                          Grid_Score:          -31.162209
##########                     Grid_vdw_energy:          -30.728113
##########                      Grid_es_energy:           -0.434095
##########           Internal_energy_repulsive:           25.483681

@<TRIPOS>MOLECULE
ZINC001296589646
 63 66 1 0 0
SMALL
USER_CHARGES


@<TRIPOS>ATOM
      1 C1        -10.6781   -5.3360   58.7458 C.3     1  ZINC001296589646   -0.1500
      2 C2        -10.0909   -3.9413   58.9713 C.3     1  ZINC001296589646    0.0500
      3 O3        -10.9538   -3.1945   59.8314 O.3     1  ZINC001296589646   -0.3600
      4 C4        -10.5428   -1.8410   60.0343 C.3     1  ZINC001296589646    0.1800
      5 C5        -10.3632   -1.1342   58.7155 C.2     1  ZINC001296589646    0.1500
      6 N6         -9.2580   -0.6132   58.2629 N.2     1  ZINC001296589646   -0.2600
      7 N7         -9.4591   -0.0892   57.1066 N.2     1  ZINC001296589646   -0.3200
      8 C8        -10.7136   -0.2491   56.7567 C.2     1  ZINC001296589646    0.3600
      9 N9        -11.3017    0.1828   55.5785 N.3     1  ZINC001296589646   -0.4300
     10 C10       -11.3967    1.6646   55.5429 C.3     1  ZINC001296589646    0.0300
     11 C11       -11.5570    1.9735   54.0331 C.3     1  ZINC001296589646   -0.1200
     12 C12       -10.6335    0.9282   53.3664 C.3     1  ZINC001296589646   -0.1000
     13 H13        -9.6622    1.3694   53.1429 H       1  ZINC001296589646    0.0800
     14 C14       -11.2778    0.3889   52.0878 C.3     1  ZINC001296589646   -0.1400
     15 C15       -10.4827   -0.1970   54.4070 C.3     1  ZINC001296589646    0.0500
     16 N16       -11.3283   -0.9260   57.7695 N.pl3   1  ZINC001296589646   -0.4600
     17 C17       -12.7334   -1.3358   57.8344 C.3     1  ZINC001296589646    0.1000
     18 C18       -12.9603   -2.5283   56.9030 C.3     1  ZINC001296589646   -0.1300
     19 C19       -14.3573   -3.1041   57.1429 C.3     1  ZINC001296589646   -0.0500
     20 H20       -14.4729   -3.3493   58.1986 H       1  ZINC001296589646    0.0800
     21 C21       -15.4111   -2.0702   56.7410 C.3     1  ZINC001296589646   -0.1500
     22 C22       -14.5356   -4.3509   56.3154 C.ar    1  ZINC001296589646   -0.0800
     23 C23       -14.9145   -4.2522   54.9896 C.ar    1  ZINC001296589646   -0.1100
     24 C24       -15.0780   -5.3958   54.2305 C.ar    1  ZINC001296589646   -0.1200
     25 C25       -14.8623   -6.6382   54.7970 C.ar    1  ZINC001296589646   -0.1200
     26 C26       -14.4826   -6.7368   56.1225 C.ar    1  ZINC001296589646   -0.1200
     27 C27       -14.3148   -5.5930   56.8805 C.ar    1  ZINC001296589646   -0.1200
     28 C28        -9.2424   -1.7793   60.8811 C.3     1  ZINC001296589646   -0.1400
     29 C29        -9.8215   -1.8634   62.3159 C.3     1  ZINC001296589646    0.0600
     30 O30       -11.0492   -1.1192   62.2690 O.3     1  ZINC001296589646   -0.3700
     31 C31       -11.5519   -1.0885   60.9281 C.3     1  ZINC001296589646    0.0400
     32 H32       -10.6894   -5.8824   59.6889 H       1  ZINC001296589646    0.0600
     33 H33       -11.6959   -5.2447   58.3665 H       1  ZINC001296589646    0.0700
     34 H34       -10.0672   -5.8746   58.0212 H       1  ZINC001296589646    0.0700
     35 H35        -9.1074   -4.0314   59.4327 H       1  ZINC001296589646    0.0500
     36 H36        -9.9977   -3.4272   58.0148 H       1  ZINC001296589646    0.0600
     37 H37       -12.2682    2.0078   56.1005 H       1  ZINC001296589646    0.0900
     38 H38       -10.4857    2.1180   55.9336 H       1  ZINC001296589646    0.0600
     39 H39       -12.5907    1.8316   53.7180 H       1  ZINC001296589646    0.0800
     40 H40       -11.2196    2.9853   53.8084 H       1  ZINC001296589646    0.0800
     41 H41       -11.4225    1.2063   51.3813 H       1  ZINC001296589646    0.0600
     42 H42       -10.6278   -0.3647   51.6433 H       1  ZINC001296589646    0.0600
     43 H43       -12.2422   -0.0588   52.3278 H       1  ZINC001296589646    0.0600
     44 H44        -9.4373   -0.2938   54.7004 H       1  ZINC001296589646    0.0800
     45 H45       -10.8430   -1.1380   53.9913 H       1  ZINC001296589646    0.0900
     46 H46       -12.9819   -1.6208   58.8567 H       1  ZINC001296589646    0.1100
     47 H47       -13.3686   -0.5062   57.5239 H       1  ZINC001296589646    0.1000
     48 H48       -12.8751   -2.2012   55.8667 H       1  ZINC001296589646    0.0800
     49 H49       -12.2118   -3.2945   57.1049 H       1  ZINC001296589646    0.0700
     50 H50       -16.4063   -2.4805   56.9118 H       1  ZINC001296589646    0.0600
     51 H51       -15.2821   -1.1685   57.3396 H       1  ZINC001296589646    0.0600
     52 H52       -15.2955   -1.8251   55.6852 H       1  ZINC001296589646    0.0600
     53 H53       -15.0830   -3.2815   54.5469 H       1  ZINC001296589646    0.1200
     54 H54       -15.3746   -5.3187   53.1949 H       1  ZINC001296589646    0.1200
     55 H55       -14.9907   -7.5316   54.2041 H       1  ZINC001296589646    0.1200
     56 H56       -14.3143   -7.7074   56.5652 H       1  ZINC001296589646    0.1200
     57 H57       -14.0182   -5.6701   57.9160 H       1  ZINC001296589646    0.1200
     58 H58        -8.5944   -2.6297   60.6686 H       1  ZINC001296589646    0.1000
     59 H59        -8.7159   -0.8378   60.7245 H       1  ZINC001296589646    0.1000
     60 H60       -10.0183   -2.9014   62.5842 H       1  ZINC001296589646    0.0700
     61 H61        -9.1322   -1.4116   63.0291 H       1  ZINC001296589646    0.0900
     62 H62       -11.6454   -0.0559   60.5918 H       1  ZINC001296589646    0.1000
     63 H63       -12.5229   -1.5818   60.8858 H       1  ZINC001296589646    0.0800
@<TRIPOS>BOND
     1     1     2    1
     2     1    32    1
     3     1    33    1
     4     1    34    1
     5     2     3    1
     6     2    35    1
     7     2    36    1
     8     3     4    1
     9     4    31    1
    10     4     5    1
    11     4    28    1
    12     5    16    1
    13     5     6    2
    14     6     7    1
    15     7     8    2
    16     8     9    1
    17     8    16    1
    18     9    15    1
    19     9    10    1
    20    10    11    1
    21    10    37    1
    22    10    38    1
    23    11    12    1
    24    11    39    1
    25    11    40    1
    26    12    13    1
    27    12    14    1
    28    12    15    1
    29    14    41    1
    30    14    42    1
    31    14    43    1
    32    15    44    1
    33    15    45    1
    34    16    17    1
    35    17    18    1
    36    17    46    1
    37    17    47    1
    38    18    19    1
    39    18    48    1
    40    18    49    1
    41    19    20    1
    42    19    21    1
    43    19    22    1
    44    21    50    1
    45    21    51    1
    46    21    52    1
    47    22    27   ar
    48    22    23   ar
    49    23    24   ar
    50    23    53    1
    51    24    25   ar
    52    24    54    1
    53    25    26   ar
    54    25    55    1
    55    26    27   ar
    56    26    56    1
    57    27    57    1
    58    28    29    1
    59    28    58    1
    60    28    59    1
    61    29    30    1
    62    29    60    1
    63    29    61    1
    64    30    31    1
    65    31    62    1
    66    31    63    1
@<TRIPOS>SUBSTRUCTURE
     1 ZINC001296589646        1 TEMP              0 ****  ****    0 ROOT


##########                                Name:    ZINC000541000201
##########                DOCK_Rotatable_Bonds:                  10
##########                         Heavy_Atoms:                  30
##########                    Molecular_Weight:             420.413
##########                DOCK_Rotatable_Bonds:                  10
##########                       Formal_Charge:               -0.03
##########                     HBond_Acceptors:                   9
##########                        HBond_Donors:                   1
##########                         Heavy_Atoms:                  30
##########                          Grid_Score:          -31.149984
##########                     Grid_vdw_energy:          -30.903330
##########                      Grid_es_energy:           -0.246655
##########           Internal_energy_repulsive:           12.133228

@<TRIPOS>MOLECULE
ZINC000541000201
 52 54 1 0 0
SMALL
USER_CHARGES


@<TRIPOS>ATOM
      1 C1          2.2008    1.4380   50.9967 C.3     1  ZINC000541000201    0.0400
      2 O2          1.0162    1.7194   50.2055 O.3     1  ZINC000541000201   -0.3500
      3 C3          0.2382    2.7344   50.6131 C.2     1  ZINC000541000201    0.4500
      4 O4          0.5084    3.3334   51.6269 O.2     1  ZINC000541000201   -0.4900
      5 C5         -0.9724    3.1268   49.8060 C.3     1  ZINC000541000201    0.2100
      6 H6         -1.0450    4.2137   49.7648 H       1  ZINC000541000201    0.1400
      7 N7         -2.1772    2.5806   50.4357 N.am    1  ZINC000541000201   -0.7100
      8 C8         -3.0172    3.3960   51.1036 C.2     1  ZINC000541000201    0.5800
      9 O9         -2.7761    4.5850   51.1821 O.2     1  ZINC000541000201   -0.5300
     10 C10        -4.2302    2.8453   51.7396 C.ar    1  ZINC000541000201   -0.2300
     11 C11        -4.6605    1.5437   51.4439 C.ar    1  ZINC000541000201    0.0200
     12 C12        -5.8003    1.0736   52.0637 C.ar    1  ZINC000541000201   -0.2000
     13 C13        -6.4800    1.8986   52.9542 C.ar    1  ZINC000541000201    0.3500
     14 O14        -7.5996    1.4423   53.5657 O.3     1  ZINC000541000201   -0.2900
     15 C15        -8.1369    2.2453   54.6186 C.3     1  ZINC000541000201    0.0800
     16 C16        -9.5477    1.7447   55.0162 C.3     1  ZINC000541000201   -0.1400
     17 C17        -9.6990    2.2658   56.4670 C.3     1  ZINC000541000201   -0.1200
     18 C18        -8.2937    2.0930   57.0795 C.3     1  ZINC000541000201   -0.1200
     19 C19        -7.3005    2.0800   55.9042 C.3     1  ZINC000541000201   -0.1200
     20 N20        -6.0480    3.1235   53.2131 N.ar    1  ZINC000541000201   -0.5400
     21 C21        -4.9628    3.6101   52.6486 C.ar    1  ZINC000541000201    0.1800
     22 C22        -0.8437    2.5786   48.4082 C.ar    1  ZINC000541000201   -0.1300
     23 C23        -1.1518    1.2546   48.1551 C.ar    1  ZINC000541000201   -0.0700
     24 C24        -1.0345    0.7497   46.8745 C.ar    1  ZINC000541000201   -0.1300
     25 C25        -0.6077    1.5723   45.8421 C.ar    1  ZINC000541000201    0.1200
     26 O26        -0.4920    1.0779   44.5816 O.3     1  ZINC000541000201   -0.3200
     27 C27         0.7669    1.2540   43.9287 C.3     1  ZINC000541000201    0.4100
     28 F28         1.0754    0.1048   43.1928 F       1  ZINC000541000201   -0.2000
     29 F29         0.6957    2.3542   43.0674 F       1  ZINC000541000201   -0.2000
     30 C30        -0.2996    2.9004   46.0987 C.ar    1  ZINC000541000201   -0.1900
     31 C31        -0.4231    3.4018   47.3800 C.ar    1  ZINC000541000201   -0.0500
     32 H32         2.7386    0.5968   50.5592 H       1  ZINC000541000201    0.1000
     33 H33         2.8469    2.3158   51.0084 H       1  ZINC000541000201    0.0600
     34 H34         1.9062    1.1901   52.0164 H       1  ZINC000541000201    0.0600
     35 H35        -2.3702    1.6321   50.3721 H       1  ZINC000541000201    0.4100
     36 H36        -4.1137    0.9247   50.7480 H       1  ZINC000541000201    0.1600
     37 H37        -6.1610    0.0762   51.8594 H       1  ZINC000541000201    0.1500
     38 H38        -8.1722    3.2925   54.3184 H       1  ZINC000541000201    0.1000
     39 H39       -10.3087    2.1795   54.3684 H       1  ZINC000541000201    0.0700
     40 H40        -9.5928    0.6559   54.9902 H       1  ZINC000541000201    0.0800
     41 H41        -9.9884    3.3167   56.4667 H       1  ZINC000541000201    0.0700
     42 H42       -10.4291    1.6682   57.0129 H       1  ZINC000541000201    0.0700
     43 H43        -8.0720    2.9262   57.7465 H       1  ZINC000541000201    0.0700
     44 H44        -8.2377    1.1516   57.6260 H       1  ZINC000541000201    0.0700
     45 H45        -6.7626    1.1324   55.8805 H       1  ZINC000541000201    0.0800
     46 H46        -6.5969    2.9068   56.0008 H       1  ZINC000541000201    0.0700
     47 H47        -4.6411    4.6136   52.8848 H       1  ZINC000541000201    0.1600
     48 H48        -1.4840    0.6147   48.9590 H       1  ZINC000541000201    0.1300
     49 H49        -1.2746   -0.2847   46.6775 H       1  ZINC000541000201    0.1400
     50 H50         1.5424    1.4265   44.6750 H       1  ZINC000541000201    0.1900
     51 H51         0.0332    3.5426   45.2967 H       1  ZINC000541000201    0.1400
     52 H52        -0.1838    4.4357   47.5802 H       1  ZINC000541000201    0.1400
@<TRIPOS>BOND
     1     1     2    1
     2     1    32    1
     3     1    33    1
     4     1    34    1
     5     2     3    1
     6     3     4    2
     7     3     5    1
     8     5     6    1
     9     5     7    1
    10     5    22    1
    11     7     8   am
    12     7    35    1
    13     8     9    2
    14     8    10    1
    15    10    21   ar
    16    10    11   ar
    17    11    12   ar
    18    11    36    1
    19    12    13   ar
    20    12    37    1
    21    13    14    1
    22    13    20   ar
    23    14    15    1
    24    15    19    1
    25    15    16    1
    26    15    38    1
    27    16    17    1
    28    16    39    1
    29    16    40    1
    30    17    18    1
    31    17    41    1
    32    17    42    1
    33    18    19    1
    34    18    43    1
    35    18    44    1
    36    19    45    1
    37    19    46    1
    38    20    21   ar
    39    21    47    1
    40    22    31   ar
    41    22    23   ar
    42    23    24   ar
    43    23    48    1
    44    24    25   ar
    45    24    49    1
    46    25    26    1
    47    25    30   ar
    48    26    27    1
    49    27    28    1
    50    27    29    1
    51    27    50    1
    52    30    31   ar
    53    30    51    1
    54    31    52    1
@<TRIPOS>SUBSTRUCTURE
     1 ZINC000541000201        1 TEMP              0 ****  ****    0 ROOT


##########                                Name:    ZINC000740930783
##########                DOCK_Rotatable_Bonds:                  11
##########                         Heavy_Atoms:                  27
##########                    Molecular_Weight:             413.257
##########                DOCK_Rotatable_Bonds:                  11
##########                       Formal_Charge:          -0.0100004
##########                     HBond_Acceptors:                   9
##########                        HBond_Donors:                   4
##########                         Heavy_Atoms:                  27
##########                          Grid_Score:          -31.142536
##########                     Grid_vdw_energy:          -29.584812
##########                      Grid_es_energy:           -1.557724
##########           Internal_energy_repulsive:           12.515890

@<TRIPOS>MOLECULE
ZINC000740930783
 45 46 1 0 0
SMALL
USER_CHARGES


@<TRIPOS>ATOM
      1 C1        -10.9902   -3.5411   59.6028 C.3     1  ZINC000740930783    0.0200
      2 O2         -9.7611   -2.8482   59.8294 O.3     1  ZINC000740930783   -0.3000
      3 C3         -9.7433   -1.5164   59.5545 C.ar    1  ZINC000740930783    0.1200
      4 C4         -9.3636   -1.0750   58.3019 C.ar    1  ZINC000740930783   -0.1400
      5 C5         -9.3467    0.2941   58.0219 C.ar    1  ZINC000740930783   -0.0800
      6 C6         -8.9420    0.7707   56.6847 C.2     1  ZINC000740930783    0.5600
      7 O7         -7.8555    1.2937   56.5289 O.2     1  ZINC000740930783   -0.5300
      8 N8         -9.7769    0.6260   55.6366 N.am    1  ZINC000740930783   -0.7200
      9 C9         -9.3760    1.1005   54.3098 C.3     1  ZINC000740930783    0.0900
     10 C10       -10.1770    0.3574   53.2389 C.3     1  ZINC000740930783    0.1400
     11 H11       -11.0544   -0.1015   53.6944 H       1  ZINC000740930783    0.1200
     12 O12        -9.3599   -0.6570   52.6511 O.3     1  ZINC000740930783   -0.5500
     13 C13       -10.6145    1.3297   52.1738 C.ar    1  ZINC000740930783   -0.1100
     14 C14       -11.9603    1.5367   51.9378 C.ar    1  ZINC000740930783   -0.1000
     15 C15       -12.3619    2.4287   50.9607 C.ar    1  ZINC000740930783   -0.1100
     16 C16       -11.4177    3.1133   50.2190 C.ar    1  ZINC000740930783   -0.1000
     17 C17       -10.0711    2.9070   50.4541 C.ar    1  ZINC000740930783   -0.1100
     18 C18        -9.6689    2.0194   51.4358 C.ar    1  ZINC000740930783   -0.0300
     19 Cl19       -7.9781    1.7598   51.7318 Cl      1  ZINC000740930783   -0.0600
     20 C20        -9.7140    1.2107   59.0098 C.ar    1  ZINC000740930783   -0.1000
     21 C21       -10.0923    0.7636   60.2586 C.ar    1  ZINC000740930783   -0.0200
     22 Cl22      -10.5490    1.9039   61.4853 Cl      1  ZINC000740930783   -0.0300
     23 C23       -10.1139   -0.5974   60.5348 C.ar    1  ZINC000740930783    0.0900
     24 O24       -10.4871   -1.0332   61.7658 O.3     1  ZINC000740930783   -0.2900
     25 C25        -9.4454   -1.2595   62.7174 C.3     1  ZINC000740930783    0.0400
     26 C26        -9.8217   -0.6296   64.0337 C.2     1  ZINC000740930783    0.5200
     27 N27        -8.8663   -0.3360   64.9379 N.am    1  ZINC000740930783   -0.8500
     28 O28       -10.9842   -0.3869   64.2795 O.2     1  ZINC000740930783   -0.5100
     29 H29       -11.7734   -3.1038   60.2220 H       1  ZINC000740930783    0.0600
     30 H30       -11.2673   -3.4553   58.5521 H       1  ZINC000740930783    0.0600
     31 H31       -10.8673   -4.5929   59.8614 H       1  ZINC000740930783    0.1100
     32 H32        -9.0798   -1.7864   57.5405 H       1  ZINC000740930783    0.1600
     33 H33       -10.6432    0.2077   55.7608 H       1  ZINC000740930783    0.4100
     34 H34        -9.5708    2.1702   54.2324 H       1  ZINC000740930783    0.0900
     35 H35        -8.3123    0.9134   54.1632 H       1  ZINC000740930783    0.0800
     36 H36        -9.8498   -1.4404   52.3659 H       1  ZINC000740930783    0.3800
     37 H37       -12.6985    1.0015   52.5165 H       1  ZINC000740930783    0.1300
     38 H38       -13.4138    2.5902   50.7765 H       1  ZINC000740930783    0.1300
     39 H39       -11.7319    3.8095   49.4553 H       1  ZINC000740930783    0.1400
     40 H40        -9.3335    3.4421   49.8745 H       1  ZINC000740930783    0.1400
     41 H41        -9.7015    2.2693   58.7961 H       1  ZINC000740930783    0.1500
     42 H42        -9.3053   -2.3318   62.8546 H       1  ZINC000740930783    0.0900
     43 H43        -8.5185   -0.8157   62.3539 H       1  ZINC000740930783    0.0900
     44 H44        -9.1083    0.0704   65.7847 H       1  ZINC000740930783    0.4000
     45 H45        -7.9365   -0.5314   64.7418 H       1  ZINC000740930783    0.4100
@<TRIPOS>BOND
     1     1     2    1
     2     1    29    1
     3     1    30    1
     4     1    31    1
     5     2     3    1
     6     3    23   ar
     7     3     4   ar
     8     4     5   ar
     9     4    32    1
    10     5     6    1
    11     5    20   ar
    12     6     7    2
    13     6     8   am
    14     8     9    1
    15     8    33    1
    16     9    10    1
    17     9    34    1
    18     9    35    1
    19    10    11    1
    20    10    12    1
    21    10    13    1
    22    12    36    1
    23    13    18   ar
    24    13    14   ar
    25    14    15   ar
    26    14    37    1
    27    15    16   ar
    28    15    38    1
    29    16    17   ar
    30    16    39    1
    31    17    18   ar
    32    17    40    1
    33    18    19    1
    34    20    21   ar
    35    20    41    1
    36    21    22    1
    37    21    23   ar
    38    23    24    1
    39    24    25    1
    40    25    26    1
    41    25    42    1
    42    25    43    1
    43    26    27   am
    44    26    28    2
    45    27    44    1
    46    27    45    1
@<TRIPOS>SUBSTRUCTURE
     1 ZINC000740930783        1 TEMP              0 ****  ****    0 ROOT


##########                                Name:    ZINC000439870054
##########                DOCK_Rotatable_Bonds:                   5
##########                         Heavy_Atoms:                  27
##########                    Molecular_Weight:             421.974
##########                DOCK_Rotatable_Bonds:                   5
##########                       Formal_Charge:           0.0200003
##########                     HBond_Acceptors:                   9
##########                        HBond_Donors:                   0
##########                         Heavy_Atoms:                  27
##########                          Grid_Score:          -31.086988
##########                     Grid_vdw_energy:          -28.934212
##########                      Grid_es_energy:           -2.152776
##########           Internal_energy_repulsive:           63.439911

@<TRIPOS>MOLECULE
ZINC000439870054
 47 50 1 0 0
SMALL
USER_CHARGES


@<TRIPOS>ATOM
      1 C1         -9.0136    1.7252   65.7546 C.3     1  ZINC000439870054   -0.1400
      2 C2         -8.8885    0.3358   65.1264 C.3     1  ZINC000439870054    0.0000
      3 C3         -8.7068   -0.7084   66.2300 C.3     1  ZINC000439870054   -0.1400
      4 C4        -10.1368    0.0250   64.3415 C.2     1  ZINC000439870054    0.1900
      5 N5        -11.3662    0.2953   64.6978 N.2     1  ZINC000439870054   -0.2900
      6 N6        -12.1832   -0.1126   63.7877 N.2     1  ZINC000439870054   -0.2700
      7 C7        -11.5134   -0.6585   62.8201 C.2     1  ZINC000439870054    0.1600
      8 C8        -12.0335   -1.2871   61.5498 C.3     1  ZINC000439870054    0.2400
      9 H9        -12.5259   -2.2326   61.7771 H       1  ZINC000439870054    0.1100
     10 C10       -13.0177   -0.3383   60.8628 C.3     1  ZINC000439870054   -0.1300
     11 N11       -10.8673   -1.5235   60.6778 N.am    1  ZINC000439870054   -0.6300
     12 C12       -10.9183   -1.2422   59.3608 C.2     1  ZINC000439870054    0.5300
     13 O13       -11.9333   -0.7877   58.8767 O.2     1  ZINC000439870054   -0.4900
     14 C14        -9.7143   -1.4920   58.4897 C.3     1  ZINC000439870054   -0.0700
     15 C15        -9.9846   -0.9774   57.0993 C.2     1  ZINC000439870054    0.0900
     16 C16       -10.9785   -1.4574   56.3462 C.2     1  ZINC000439870054   -0.2400
     17 S17       -10.9644   -0.6053   54.8035 S.3     1  ZINC000439870054    0.1300
     18 C18        -9.5795    0.3404   55.3435 C.2     1  ZINC000439870054    0.1400
     19 C19        -8.8964    1.3794   54.5576 C.2     1  ZINC000439870054   -0.1300
     20 C20        -9.2030    1.7253   53.2883 C.2     1  ZINC000439870054   -0.1000
     21 C21        -8.4206    2.7296   52.7605 C.2     1  ZINC000439870054   -0.1200
     22 C22        -7.4796    3.2073   53.5838 C.2     1  ZINC000439870054   -0.1500
     23 Cl23       -6.3544    4.4691   53.1892 Cl      1  ZINC000439870054    0.0000
     24 S24        -7.5589    2.3693   55.1278 S.3     1  ZINC000439870054    0.2500
     25 N25        -9.2609   -0.0254   56.5549 N.2     1  ZINC000439870054   -0.4400
     26 C26        -9.6471   -2.0746   61.2867 C.3     1  ZINC000439870054    0.0900
     27 C27        -9.0973   -1.0746   62.3106 C.3     1  ZINC000439870054    0.0900
     28 N28       -10.1963   -0.5783   63.1377 N.pl3   1  ZINC000439870054   -0.4700
     29 H29        -8.1107    1.9499   66.3223 H       1  ZINC000439870054    0.0700
     30 H30        -9.1430    2.4691   64.9684 H       1  ZINC000439870054    0.0500
     31 H31        -9.8762    1.7465   66.4205 H       1  ZINC000439870054    0.0700
     32 H32        -8.0259    0.3144   64.4605 H       1  ZINC000439870054    0.0800
     33 H33        -8.6177   -1.6983   65.7825 H       1  ZINC000439870054    0.0500
     34 H34        -7.8039   -0.4837   66.7977 H       1  ZINC000439870054    0.0700
     35 H35        -9.5695   -0.6870   66.8959 H       1  ZINC000439870054    0.0700
     36 H36       -12.4813    0.5346   60.4906 H       1  ZINC000439870054    0.0600
     37 H37       -13.4970   -0.8527   60.0297 H       1  ZINC000439870054    0.0900
     38 H38       -13.7761   -0.0208   61.5784 H       1  ZINC000439870054    0.0700
     39 H39        -8.8503   -0.9747   58.9069 H       1  ZINC000439870054    0.1100
     40 H40        -9.5118   -2.5623   58.4480 H       1  ZINC000439870054    0.1200
     41 H41       -11.6714   -2.2345   56.6334 H       1  ZINC000439870054    0.1800
     42 H42        -9.9979    1.2520   52.7311 H       1  ZINC000439870054    0.1500
     43 H43        -8.5566    3.1035   51.7564 H       1  ZINC000439870054    0.1600
     44 H44        -9.8821   -3.0147   61.7859 H       1  ZINC000439870054    0.0900
     45 H45        -8.9009   -2.2498   60.5118 H       1  ZINC000439870054    0.1200
     46 H46        -8.3579   -1.5684   62.9412 H       1  ZINC000439870054    0.1100
     47 H47        -8.6320   -0.2380   61.7892 H       1  ZINC000439870054    0.0900
@<TRIPOS>BOND
     1     1     2    1
     2     1    29    1
     3     1    30    1
     4     1    31    1
     5     2     3    1
     6     2     4    1
     7     2    32    1
     8     3    33    1
     9     3    34    1
    10     3    35    1
    11     4    28    1
    12     4     5    2
    13     5     6    1
    14     6     7    2
    15     7    28    1
    16     7     8    1
    17     8     9    1
    18     8    10    1
    19     8    11    1
    20    10    36    1
    21    10    37    1
    22    10    38    1
    23    11    12   am
    24    11    26    1
    25    12    13    2
    26    12    14    1
    27    14    15    1
    28    14    39    1
    29    14    40    1
    30    15    25    1
    31    15    16    2
    32    16    17    1
    33    16    41    1
    34    17    18    1
    35    18    19    1
    36    18    25    2
    37    19    24    1
    38    19    20    2
    39    20    21    1
    40    20    42    1
    41    21    22    2
    42    21    43    1
    43    22    23    1
    44    22    24    1
    45    26    27    1
    46    26    44    1
    47    26    45    1
    48    27    28    1
    49    27    46    1
    50    27    47    1
@<TRIPOS>SUBSTRUCTURE
     1 ZINC000439870054        1 TEMP              0 ****  ****    0 ROOT


##########                                Name:    ZINC000751548479
##########                DOCK_Rotatable_Bonds:                   9
##########                         Heavy_Atoms:                  27
##########                    Molecular_Weight:             389.407
##########                DOCK_Rotatable_Bonds:                   9
##########                       Formal_Charge:           0.0199995
##########                     HBond_Acceptors:                   9
##########                        HBond_Donors:                   2
##########                         Heavy_Atoms:                  27
##########                          Grid_Score:          -31.067497
##########                     Grid_vdw_energy:          -29.836761
##########                      Grid_es_energy:           -1.230736
##########           Internal_energy_repulsive:           12.370960

@<TRIPOS>MOLECULE
ZINC000751548479
 43 44 1 0 0
SMALL
USER_CHARGES


@<TRIPOS>ATOM
      1 C1         -9.5922    0.0650   63.5103 C.3     1  ZINC000751548479   -0.1600
      2 C2         -9.7478   -1.3181   62.8748 C.3     1  ZINC000751548479    0.0800
      3 O3         -8.9227   -1.3986   61.6828 O.3     1  ZINC000751548479   -0.3600
      4 C4         -9.5061   -1.0767   60.5127 C.2     1  ZINC000751548479    0.6500
      5 O5        -10.6448   -0.6528   60.4979 O.2     1  ZINC000751548479   -0.5400
      6 N6         -8.8271   -1.2246   59.3580 N.am    1  ZINC000751548479   -0.6500
      7 C7         -9.4320   -0.8908   58.1444 C.ar    1  ZINC000751548479    0.2000
      8 C8         -9.3924    0.4174   57.6843 C.ar    1  ZINC000751548479   -0.1000
      9 C9         -9.9899    0.7491   56.4849 C.ar    1  ZINC000751548479   -0.1000
     10 C10       -10.6356   -0.2235   55.7290 C.ar    1  ZINC000751548479    0.1300
     11 N11       -11.2387    0.1226   54.5147 N.am    1  ZINC000751548479   -1.0500
     12 S12       -10.4711   -0.2079   53.0850 S.o2    1  ZINC000751548479    2.6800
     13 O13       -10.1547   -1.5929   53.1103 O.2     1  ZINC000751548479   -0.9500
     14 O14       -11.2531    0.3922   52.0616 O.2     1  ZINC000751548479   -0.9400
     15 C15        -8.9343    0.6540   53.1068 C.2     1  ZINC000751548479   -0.7500
     16 C16        -8.0361    0.4317   52.1574 C.2     1  ZINC000751548479    0.0700
     17 C17        -6.7479    1.1559   52.1747 C.ar    1  ZINC000751548479   -0.1100
     18 C18        -5.6940    0.7295   51.3653 C.ar    1  ZINC000751548479   -0.0600
     19 C19        -4.4940    1.4092   51.3849 C.ar    1  ZINC000751548479   -0.1600
     20 C20        -4.3336    2.5134   52.2066 C.ar    1  ZINC000751548479    0.1200
     21 F21        -3.1561    3.1754   52.2223 F       1  ZINC000751548479   -0.1300
     22 C22        -5.3770    2.9412   53.0118 C.ar    1  ZINC000751548479   -0.1600
     23 C23        -6.5829    2.2719   52.9960 C.ar    1  ZINC000751548479   -0.0500
     24 C24       -10.6827   -1.5338   56.1748 C.ar    1  ZINC000751548479   -0.0600
     25 C25       -10.0764   -1.8783   57.3847 C.ar    1  ZINC000751548479   -0.0300
     26 C26       -10.1205   -3.2312   57.8520 C.1     1  ZINC000751548479    0.2500
     27 N27       -10.1555   -4.3044   58.2227 N.1     1  ZINC000751548479   -0.4000
     28 H28        -9.9059    0.8290   62.7990 H       1  ZINC000751548479    0.0700
     29 H29       -10.2116    0.1254   64.4051 H       1  ZINC000751548479    0.0900
     30 H30        -8.5483    0.2259   63.7795 H       1  ZINC000751548479    0.0700
     31 H31        -9.4342   -2.0821   63.5862 H       1  ZINC000751548479    0.0800
     32 H32       -10.7917   -1.4790   62.6057 H       1  ZINC000751548479    0.0800
     33 H33        -7.9181   -1.5630   59.3698 H       1  ZINC000751548479    0.4200
     34 H34        -8.8932    1.1782   58.2661 H       1  ZINC000751548479    0.1600
     35 H35        -9.9562    1.7693   56.1318 H       1  ZINC000751548479    0.1700
     36 H36       -12.1064    0.5563   54.5103 H       1  ZINC000751548479    0.4300
     37 H37        -8.7242    1.3633   53.8936 H       1  ZINC000751548479    0.1700
     38 H38        -8.2458   -0.2787   51.3713 H       1  ZINC000751548479    0.1500
     39 H39        -5.8178   -0.1315   50.7250 H       1  ZINC000751548479    0.1400
     40 H40        -3.6778    1.0800   50.7589 H       1  ZINC000751548479    0.1400
     41 H41        -5.2470    3.8026   53.6503 H       1  ZINC000751548479    0.1400
     42 H42        -7.3955    2.6063   53.6238 H       1  ZINC000751548479    0.1400
     43 H43       -11.1845   -2.2879   55.5867 H       1  ZINC000751548479    0.1500
@<TRIPOS>BOND
     1     1     2    1
     2     1    28    1
     3     1    29    1
     4     1    30    1
     5     2     3    1
     6     2    31    1
     7     2    32    1
     8     3     4    1
     9     4     5    2
    10     4     6   am
    11     6     7    1
    12     6    33    1
    13     7    25   ar
    14     7     8   ar
    15     8     9   ar
    16     8    34    1
    17     9    10   ar
    18     9    35    1
    19    10    11    1
    20    10    24   ar
    21    11    12   am
    22    11    36    1
    23    12    13    2
    24    12    14    2
    25    12    15    1
    26    15    16    2
    27    15    37    1
    28    16    17    1
    29    16    38    1
    30    17    23   ar
    31    17    18   ar
    32    18    19   ar
    33    18    39    1
    34    19    20   ar
    35    19    40    1
    36    20    21    1
    37    20    22   ar
    38    22    23   ar
    39    22    41    1
    40    23    42    1
    41    24    25   ar
    42    24    43    1
    43    25    26    1
    44    26    27    3
@<TRIPOS>SUBSTRUCTURE
     1 ZINC000751548479        1 TEMP              0 ****  ****    0 ROOT


##########                                Name:    ZINC000151820600
##########                DOCK_Rotatable_Bonds:                  10
##########                         Heavy_Atoms:                  25
##########                    Molecular_Weight:             388.915
##########                DOCK_Rotatable_Bonds:                  10
##########                       Formal_Charge:           0.0499998
##########                     HBond_Acceptors:                   8
##########                        HBond_Donors:                   2
##########                         Heavy_Atoms:                  25
##########                          Grid_Score:          -31.064997
##########                     Grid_vdw_energy:          -28.819014
##########                      Grid_es_energy:           -2.245984
##########           Internal_energy_repulsive:           14.047685

@<TRIPOS>MOLECULE
ZINC000151820600
 50 50 1 0 0
SMALL
USER_CHARGES


@<TRIPOS>ATOM
      1 C1        -15.2550   -7.2223   55.8272 C.3     1  ZINC000151820600   -0.4900
      2 S2        -14.8211   -5.4717   56.0209 S.o     1  ZINC000151820600    1.2500
      3 O3        -14.4570   -4.9314   54.7580 O.2     1  ZINC000151820600   -0.8500
      4 C4        -13.3622   -5.5296   57.0972 C.3     1  ZINC000151820600   -0.4500
      5 C5        -12.8657   -4.1065   57.3603 C.3     1  ZINC000151820600   -0.1100
      6 C6        -11.6358   -4.1553   58.2692 C.3     1  ZINC000151820600    0.1200
      7 N7        -11.2139   -2.7903   58.5935 N.am    1  ZINC000151820600   -0.7200
      8 C8         -9.9550   -2.5561   59.0138 C.2     1  ZINC000151820600    0.5200
      9 O9         -9.1718   -3.4756   59.1250 O.2     1  ZINC000151820600   -0.5200
     10 C10        -9.5204   -1.1519   59.3457 C.3     1  ZINC000151820600    0.1900
     11 H11        -8.4393   -1.0699   59.2330 H       1  ZINC000151820600    0.1300
     12 N12       -10.1788   -0.2094   58.4375 N.am    1  ZINC000151820600   -0.6900
     13 C13        -9.5093    0.2840   57.3770 C.2     1  ZINC000151820600    0.6600
     14 O14        -8.3591   -0.0517   57.1749 O.2     1  ZINC000151820600   -0.5600
     15 O15       -10.1149    1.1488   56.5415 O.3     1  ZINC000151820600   -0.3600
     16 C16        -9.5302    2.4729   56.4260 C.3     1  ZINC000151820600    0.1400
     17 C17        -8.4794    2.4711   55.3139 C.3     1  ZINC000151820600   -0.1800
     18 C18       -10.6259    3.4867   56.0906 C.3     1  ZINC000151820600   -0.1400
     19 C19        -8.8692    2.8560   57.7515 C.3     1  ZINC000151820600   -0.1800
     20 C20        -9.9032   -0.8302   60.7673 C.ar    1  ZINC000151820600   -0.1000
     21 C21        -9.0437   -1.1460   61.8027 C.ar    1  ZINC000151820600   -0.0900
     22 C22        -9.3940   -0.8506   63.1071 C.ar    1  ZINC000151820600   -0.1000
     23 C23       -10.6040   -0.2401   63.3767 C.ar    1  ZINC000151820600   -0.1000
     24 C24       -11.4650    0.0763   62.3405 C.ar    1  ZINC000151820600   -0.0300
     25 Cl25      -12.9851    0.8438   62.6782 Cl      1  ZINC000151820600   -0.0600
     26 C26       -11.1114   -0.2143   61.0352 C.ar    1  ZINC000151820600   -0.0900
     27 H27       -14.4201   -7.7555   55.3726 H       1  ZINC000151820600    0.0800
     28 H28       -15.4723   -7.6531   56.8047 H       1  ZINC000151820600    0.1100
     29 H29       -16.1336   -7.3104   55.1880 H       1  ZINC000151820600    0.1100
     30 H30       -13.6267   -6.0027   58.0429 H       1  ZINC000151820600    0.1200
     31 H31       -12.5745   -6.1050   56.6108 H       1  ZINC000151820600    0.0900
     32 H32       -12.6001   -3.6337   56.4148 H       1  ZINC000151820600    0.0800
     33 H33       -13.6537   -3.5307   57.8457 H       1  ZINC000151820600    0.0900
     34 H34       -11.8839   -4.6869   59.1879 H       1  ZINC000151820600    0.0800
     35 H35       -10.8256   -4.6740   57.7567 H       1  ZINC000151820600    0.0700
     36 H36       -11.8406   -2.0551   58.5057 H       1  ZINC000151820600    0.4000
     37 H37       -11.0966    0.0595   58.5995 H       1  ZINC000151820600    0.4200
     38 H38        -8.9503    2.1981   54.3695 H       1  ZINC000151820600    0.0600
     39 H39        -8.0405    3.4650   55.2271 H       1  ZINC000151820600    0.0700
     40 H40        -7.6988    1.7488   55.5528 H       1  ZINC000151820600    0.0900
     41 H41       -11.3746    3.4880   56.8828 H       1  ZINC000151820600    0.0700
     42 H42       -10.1870    4.4807   56.0039 H       1  ZINC000151820600    0.0800
     43 H43       -11.0968    3.2138   55.1462 H       1  ZINC000151820600    0.0700
     44 H44        -8.0886    2.1337   57.9905 H       1  ZINC000151820600    0.0900
     45 H45        -8.4304    3.8499   57.6648 H       1  ZINC000151820600    0.0700
     46 H46        -9.6178    2.8573   58.5438 H       1  ZINC000151820600    0.0600
     47 H47        -8.0982   -1.6238   61.5926 H       1  ZINC000151820600    0.1300
     48 H48        -8.7219   -1.0975   63.9158 H       1  ZINC000151820600    0.1400
     49 H49       -10.8779   -0.0102   64.3958 H       1  ZINC000151820600    0.1400
     50 H50       -11.7829    0.0324   60.2260 H       1  ZINC000151820600    0.1400
@<TRIPOS>BOND
     1     1     2    1
     2     1    27    1
     3     1    28    1
     4     1    29    1
     5     2     3    2
     6     2     4    1
     7     4     5    1
     8     4    30    1
     9     4    31    1
    10     5     6    1
    11     5    32    1
    12     5    33    1
    13     6     7    1
    14     6    34    1
    15     6    35    1
    16     7     8   am
    17     7    36    1
    18     8     9    2
    19     8    10    1
    20    10    11    1
    21    10    12    1
    22    10    20    1
    23    12    13   am
    24    12    37    1
    25    13    14    2
    26    13    15    1
    27    15    16    1
    28    16    17    1
    29    16    18    1
    30    16    19    1
    31    17    38    1
    32    17    39    1
    33    17    40    1
    34    18    41    1
    35    18    42    1
    36    18    43    1
    37    19    44    1
    38    19    45    1
    39    19    46    1
    40    20    26   ar
    41    20    21   ar
    42    21    22   ar
    43    21    47    1
    44    22    23   ar
    45    22    48    1
    46    23    24   ar
    47    23    49    1
    48    24    25    1
    49    24    26   ar
    50    26    50    1
@<TRIPOS>SUBSTRUCTURE
     1 ZINC000151820600        1 TEMP              0 ****  ****    0 ROOT


##########                                Name:    ZINC001341052241
##########                DOCK_Rotatable_Bonds:                   7
##########                         Heavy_Atoms:                  24
##########                    Molecular_Weight:             336.478
##########                DOCK_Rotatable_Bonds:                   7
##########                       Formal_Charge:         5.96046e-08
##########                     HBond_Acceptors:                   6
##########                        HBond_Donors:                   0
##########                         Heavy_Atoms:                  24
##########                          Grid_Score:          -31.057259
##########                     Grid_vdw_energy:          -30.047440
##########                      Grid_es_energy:           -1.009818
##########           Internal_energy_repulsive:           13.560144

@<TRIPOS>MOLECULE
ZINC001341052241
 56 58 1 0 0
SMALL
USER_CHARGES


@<TRIPOS>ATOM
      1 C1        -12.6680   -1.2105   55.4086 C.3     1  ZINC001341052241   -0.1700
      2 C2        -13.5022   -1.6796   56.6023 C.3     1  ZINC001341052241    0.1100
      3 N3        -13.1229   -3.0500   56.9547 N.pl3   1  ZINC001341052241   -0.4500
      4 C4        -13.5319   -4.2028   56.3435 C.2     1  ZINC001341052241    0.1800
      5 C5        -14.4672   -4.3064   55.1665 C.3     1  ZINC001341052241    0.1500
      6 O6        -15.2936   -5.4627   55.3151 O.3     1  ZINC001341052241   -0.3700
      7 C7        -16.1089   -5.7448   54.1758 C.3     1  ZINC001341052241    0.0900
      8 C8        -15.2251   -6.2232   53.0222 C.3     1  ZINC001341052241   -0.1400
      9 C9        -16.0980   -6.5254   51.8025 C.3     1  ZINC001341052241   -0.1200
     10 C10       -16.8432   -5.2570   51.3819 C.3     1  ZINC001341052241   -0.1200
     11 C11       -17.7269   -4.7786   52.5356 C.3     1  ZINC001341052241   -0.1200
     12 C12       -16.8541   -4.4765   53.7553 C.3     1  ZINC001341052241   -0.1200
     13 N13       -12.9624   -5.1951   56.9670 N.2     1  ZINC001341052241   -0.2600
     14 N14       -12.2226   -4.7508   57.9195 N.2     1  ZINC001341052241   -0.3100
     15 C15       -12.2886   -3.4408   57.9612 C.2     1  ZINC001341052241    0.3500
     16 N16       -11.6306   -2.6109   58.8547 N.3     1  ZINC001341052241   -0.4600
     17 C17       -12.2970   -2.6128   60.1633 C.3     1  ZINC001341052241    0.0700
     18 C18       -11.6332   -1.5797   61.0767 C.3     1  ZINC001341052241   -0.1100
     19 C19       -10.1504   -1.9259   61.2377 C.3     1  ZINC001341052241   -0.0900
     20 C20        -9.4679   -0.8625   62.1005 C.3     1  ZINC001341052241    0.0700
     21 O21       -10.0722   -0.8399   63.3953 O.3     1  ZINC001341052241   -0.3900
     22 C22        -9.4195    0.0258   64.3262 C.3     1  ZINC001341052241    0.0300
     23 C23        -9.4906   -1.9650   59.8566 C.3     1  ZINC001341052241   -0.1100
     24 C24       -10.2164   -2.9869   58.9786 C.3     1  ZINC001341052241    0.0700
     25 H25       -11.6099   -1.2485   55.6674 H       1  ZINC001341052241    0.0600
     26 H26       -12.8569   -1.8615   54.5550 H       1  ZINC001341052241    0.0700
     27 H27       -12.9430   -0.1871   55.1528 H       1  ZINC001341052241    0.0800
     28 H28       -14.5598   -1.6513   56.3399 H       1  ZINC001341052241    0.0900
     29 H29       -13.3212   -1.0223   57.4528 H       1  ZINC001341052241    0.1000
     30 H30       -15.0937   -3.4157   55.1206 H       1  ZINC001341052241    0.0900
     31 H31       -13.8869   -4.3902   54.2476 H       1  ZINC001341052241    0.0700
     32 H32       -16.8295   -6.5228   54.4284 H       1  ZINC001341052241    0.0600
     33 H33       -14.5046   -5.4454   52.7697 H       1  ZINC001341052241    0.0700
     34 H34       -14.6942   -7.1269   53.3218 H       1  ZINC001341052241    0.0700
     35 H35       -16.8185   -7.3033   52.0550 H       1  ZINC001341052241    0.0600
     36 H36       -15.4683   -6.8662   50.9806 H       1  ZINC001341052241    0.0700
     37 H37       -17.4650   -5.4722   50.5129 H       1  ZINC001341052241    0.0600
     38 H38       -16.1227   -4.4791   51.1295 H       1  ZINC001341052241    0.0600
     39 H39       -18.4476   -5.5565   52.7881 H       1  ZINC001341052241    0.0600
     40 H40       -18.2579   -3.8750   52.2359 H       1  ZINC001341052241    0.0700
     41 H41       -17.4837   -4.1356   54.5773 H       1  ZINC001341052241    0.0700
     42 H42       -16.1336   -3.6985   53.5028 H       1  ZINC001341052241    0.0700
     43 H43       -12.2125   -3.6023   60.6126 H       1  ZINC001341052241    0.0600
     44 H44       -13.3497   -2.3609   60.0350 H       1  ZINC001341052241    0.0800
     45 H45       -12.1180   -1.5923   62.0528 H       1  ZINC001341052241    0.0800
     46 H46       -11.7294   -0.5879   60.6347 H       1  ZINC001341052241    0.0800
     47 H47       -10.0538   -2.9004   61.7164 H       1  ZINC001341052241    0.0800
     48 H48        -9.5805    0.1142   61.6300 H       1  ZINC001341052241    0.0500
     49 H49        -8.4084   -1.0989   62.1982 H       1  ZINC001341052241    0.0500
     50 H50        -8.3866   -0.2959   64.4589 H       1  ZINC001341052241    0.0400
     51 H51        -9.9382   -0.0135   65.2841 H       1  ZINC001341052241    0.0900
     52 H52        -9.4360    1.0471   63.9457 H       1  ZINC001341052241    0.0400
     53 H53        -9.5531   -0.9793   59.3954 H       1  ZINC001341052241    0.0700
     54 H54        -8.4444   -2.2528   59.9611 H       1  ZINC001341052241    0.0800
     55 H55       -10.1416   -3.9746   59.4333 H       1  ZINC001341052241    0.0600
     56 H56        -9.7580   -3.0068   57.9898 H       1  ZINC001341052241    0.0800
@<TRIPOS>BOND
     1     1     2    1
     2     1    25    1
     3     1    26    1
     4     1    27    1
     5     2     3    1
     6     2    28    1
     7     2    29    1
     8     3    15    1
     9     3     4    1
    10     4     5    1
    11     4    13    2
    12     5     6    1
    13     5    30    1
    14     5    31    1
    15     6     7    1
    16     7    12    1
    17     7     8    1
    18     7    32    1
    19     8     9    1
    20     8    33    1
    21     8    34    1
    22     9    10    1
    23     9    35    1
    24     9    36    1
    25    10    11    1
    26    10    37    1
    27    10    38    1
    28    11    12    1
    29    11    39    1
    30    11    40    1
    31    12    41    1
    32    12    42    1
    33    13    14    1
    34    14    15    2
    35    15    16    1
    36    16    24    1
    37    16    17    1
    38    17    18    1
    39    17    43    1
    40    17    44    1
    41    18    19    1
    42    18    45    1
    43    18    46    1
    44    19    20    1
    45    19    23    1
    46    19    47    1
    47    20    21    1
    48    20    48    1
    49    20    49    1
    50    21    22    1
    51    22    50    1
    52    22    51    1
    53    22    52    1
    54    23    24    1
    55    23    53    1
    56    23    54    1
    57    24    55    1
    58    24    56    1
@<TRIPOS>SUBSTRUCTURE
     1 ZINC001341052241        1 TEMP              0 ****  ****    0 ROOT


##########                                Name:    ZINC000821177065
##########                DOCK_Rotatable_Bonds:                  10
##########                         Heavy_Atoms:                  25
##########                    Molecular_Weight:             341.413
##########                DOCK_Rotatable_Bonds:                  10
##########                       Formal_Charge:          0.00999917
##########                     HBond_Acceptors:                   7
##########                        HBond_Donors:                   3
##########                         Heavy_Atoms:                  25
##########                          Grid_Score:          -31.054739
##########                     Grid_vdw_energy:          -30.656712
##########                      Grid_es_energy:           -0.398028
##########           Internal_energy_repulsive:           19.090824

@<TRIPOS>MOLECULE
ZINC000821177065
 48 51 1 0 0
SMALL
USER_CHARGES


@<TRIPOS>ATOM
      1 O1        -10.2065   -1.6623   53.9908 O.2     1  ZINC000821177065   -0.5600
      2 C2        -11.0414   -0.7871   54.1149 C.2     1  ZINC000821177065    0.7100
      3 N3        -11.0503    0.2608   53.2673 N.am    1  ZINC000821177065   -0.7300
      4 C4        -10.0502    0.3483   52.2002 C.3     1  ZINC000821177065    0.1200
      5 C5         -8.8672    1.1928   52.6780 C.3     1  ZINC000821177065    0.1900
      6 O6         -8.4537    0.7453   53.9706 O.3     1  ZINC000821177065   -0.5400
      7 C7         -7.7060    1.0477   51.6924 C.3     1  ZINC000821177065   -0.1500
      8 C8         -6.2883    1.0362   52.2678 C.3     1  ZINC000821177065   -0.1600
      9 C9         -6.9063   -0.2562   51.7300 C.3     1  ZINC000821177065   -0.1700
     10 C10        -9.2882    2.6616   52.7574 C.3     1  ZINC000821177065   -0.1800
     11 C11        -8.2714    3.7133   52.3094 C.3     1  ZINC000821177065   -0.1900
     12 C12        -9.4924    3.4103   51.4387 C.3     1  ZINC000821177065   -0.1700
     13 N13       -11.9614   -0.8676   55.0965 N.am    1  ZINC000821177065   -0.6500
     14 C14       -11.9522   -1.9576   55.9781 C.2     1  ZINC000821177065    0.3200
     15 N15       -11.0371   -2.2081   56.8845 N.2     1  ZINC000821177065   -0.3200
     16 N16       -11.3952   -3.3857   57.5531 N.pl3   1  ZINC000821177065   -0.3600
     17 C17       -10.6458   -4.0200   58.6403 C.3     1  ZINC000821177065    0.1900
     18 C18       -10.5413   -3.0657   59.8019 C.ar    1  ZINC000821177065    0.1100
     19 C19       -11.6817   -2.7041   60.4933 C.ar    1  ZINC000821177065   -0.1500
     20 C20       -11.5747   -1.8257   61.5610 C.ar    1  ZINC000821177065   -0.0700
     21 C21       -10.3190   -1.3421   61.8942 C.ar    1  ZINC000821177065   -0.1700
     22 C22        -9.2231   -1.7487   61.1564 C.ar    1  ZINC000821177065    0.1000
     23 N23        -9.3617   -2.5895   60.1503 N.ar    1  ZINC000821177065   -0.4700
     24 C24       -12.5519   -3.8334   57.0209 C.2     1  ZINC000821177065    0.0700
     25 C25       -12.9236   -2.9687   56.0497 C.2     1  ZINC000821177065   -0.2600
     26 H26       -11.7188    0.9570   53.3638 H       1  ZINC000821177065    0.4000
     27 H27        -9.7025   -0.6528   51.9452 H       1  ZINC000821177065    0.0700
     28 H28       -10.4967    0.8129   51.3211 H       1  ZINC000821177065    0.0800
     29 H29        -9.1198    0.8676   54.6609 H       1  ZINC000821177065    0.3800
     30 H30        -7.8516    1.5210   50.7213 H       1  ZINC000821177065    0.1100
     31 H31        -5.5009    1.5020   51.6753 H       1  ZINC000821177065    0.0900
     32 H32        -6.1830    1.1319   53.3484 H       1  ZINC000821177065    0.1100
     33 H33        -7.2074   -1.0105   52.4569 H       1  ZINC000821177065    0.1000
     34 H34        -6.5254   -0.6404   50.7838 H       1  ZINC000821177065    0.0900
     35 H35        -9.9451    2.9181   53.5886 H       1  ZINC000821177065    0.1100
     36 H36        -8.2588    4.6619   52.8460 H       1  ZINC000821177065    0.1000
     37 H37        -7.3023    3.3588   51.9581 H       1  ZINC000821177065    0.1100
     38 H38        -9.3267    2.8564   50.5146 H       1  ZINC000821177065    0.0900
     39 H39       -10.2832    4.1595   51.4025 H       1  ZINC000821177065    0.1000
     40 H40       -12.6299   -0.1714   55.1929 H       1  ZINC000821177065    0.4100
     41 H41       -11.1634   -4.9248   58.9589 H       1  ZINC000821177065    0.1000
     42 H42        -9.6460   -4.2774   58.2905 H       1  ZINC000821177065    0.1200
     43 H43       -12.6444   -3.1003   60.2057 H       1  ZINC000821177065    0.1400
     44 H44       -12.4489   -1.5251   62.1195 H       1  ZINC000821177065    0.1400
     45 H45       -10.1984   -0.6561   62.7196 H       1  ZINC000821177065    0.1400
     46 H46        -8.2414   -1.3763   61.4093 H       1  ZINC000821177065    0.1600
     47 H47       -13.0879   -4.7218   57.3205 H       1  ZINC000821177065    0.1800
     48 H48       -13.8072   -3.0463   55.4334 H       1  ZINC000821177065    0.1700
@<TRIPOS>BOND
     1     1     2    2
     2     2     3   am
     3     2    13   am
     4     3     4    1
     5     3    26    1
     6     4     5    1
     7     4    27    1
     8     4    28    1
     9     5     6    1
    10     5     7    1
    11     5    10    1
    12     6    29    1
    13     7     9    1
    14     7     8    1
    15     7    30    1
    16     8     9    1
    17     8    31    1
    18     8    32    1
    19     9    33    1
    20     9    34    1
    21    10    12    1
    22    10    11    1
    23    10    35    1
    24    11    12    1
    25    11    36    1
    26    11    37    1
    27    12    38    1
    28    12    39    1
    29    13    14    1
    30    13    40    1
    31    14    25    1
    32    14    15    2
    33    15    16    1
    34    16    17    1
    35    16    24    1
    36    17    18    1
    37    17    41    1
    38    17    42    1
    39    18    23   ar
    40    18    19   ar
    41    19    20   ar
    42    19    43    1
    43    20    21   ar
    44    20    44    1
    45    21    22   ar
    46    21    45    1
    47    22    23   ar
    48    22    46    1
    49    24    25    2
    50    24    47    1
    51    25    48    1
@<TRIPOS>SUBSTRUCTURE
     1 ZINC000821177065        1 TEMP              0 ****  ****    0 ROOT


##########                                Name:    ZINC000286156371
##########                DOCK_Rotatable_Bonds:                   7
##########                         Heavy_Atoms:                  25
##########                    Molecular_Weight:             350.418
##########                DOCK_Rotatable_Bonds:                   7
##########                       Formal_Charge:          0.00999908
##########                     HBond_Acceptors:                   8
##########                        HBond_Donors:                   2
##########                         Heavy_Atoms:                  25
##########                          Grid_Score:          -31.047209
##########                     Grid_vdw_energy:          -30.374170
##########                      Grid_es_energy:           -0.673038
##########           Internal_energy_repulsive:           37.472248

@<TRIPOS>MOLECULE
ZINC000286156371
 51 53 1 0 0
SMALL
USER_CHARGES


@<TRIPOS>ATOM
      1 C1        -16.3519   -1.2847   58.9128 C.3     1  <0>        -0.1800
      2 C2        -15.8554   -2.4545   59.7649 C.3     1  <0>         0.1400
      3 C3        -15.6549   -1.9857   61.2074 C.3     1  <0>        -0.1800
      4 C4        -16.8887   -3.5824   59.7341 C.3     1  <0>        -0.1400
      5 O5        -14.5939   -2.9390   59.2337 O.3     1  <0>        -0.3600
      6 C6        -13.5694   -2.0661   59.1995 C.2     1  <0>         0.6800
      7 O7        -13.7400   -0.9151   59.5500 O.2     1  <0>        -0.5600
      8 N8        -12.3548   -2.4687   58.7765 N.am    1  <0>        -0.5800
      9 C9        -11.1513   -1.6218   58.6888 C.3     1  <0>         0.0700
     10 C10        -9.9627   -2.6120   58.7703 C.3     1  <0>         0.0900
     11 H11        -9.0747   -2.1963   58.2943 H       1  <0>         0.0900
     12 O12        -9.6915   -2.9761   60.1252 O.3     1  <0>        -0.5500
     13 C13       -10.5096   -3.8217   57.9673 C.3     1  <0>        -0.1200
     14 C14       -12.0090   -3.8269   58.3321 C.3     1  <0>         0.1500
     15 H15       -12.1930   -4.5425   59.1334 H       1  <0>         0.1100
     16 C16       -12.8297   -4.1906   57.1217 C.2     1  <0>         0.5200
     17 O17       -12.5075   -3.7831   56.0257 O.2     1  <0>        -0.4900
     18 N18       -13.9219   -4.9687   57.2571 N.am    1  <0>        -0.6300
     19 C19       -14.6843   -5.3084   56.1312 C.2     1  <0>         0.3000
     20 N20       -15.3078   -4.4657   55.3390 N.2     1  <0>        -0.3200
     21 N21       -15.9478   -5.2022   54.3396 N.pl3   1  <0>        -0.3600
     22 C22       -16.7615   -4.6862   53.2345 C.3     1  <0>         0.1400
     23 C23       -16.8917   -5.7769   52.1662 C.3     1  <0>        -0.1400
     24 C24       -17.3461   -7.0846   52.8213 C.3     1  <0>        -0.1300
     25 C25       -16.2077   -7.6355   53.6901 C.3     1  <0>        -0.0600
     26 C26       -15.6908   -6.5131   54.5561 C.2     1  <0>         0.0900
     27 C27       -14.9100   -6.6096   55.6494 C.2     1  <0>        -0.2600
     28 H28       -15.6158   -0.4811   58.9347 H       1  <0>         0.0900
     29 H29       -16.4947   -1.6187   57.8852 H       1  <0>         0.0600
     30 H30       -17.2989   -0.9210   59.3115 H       1  <0>         0.0700
     31 H31       -16.6019   -1.6220   61.6062 H       1  <0>         0.0700
     32 H32       -15.3013   -2.8191   61.8145 H       1  <0>         0.0600
     33 H33       -14.9188   -1.1821   61.2294 H       1  <0>         0.0900
     34 H34       -17.0314   -3.9165   58.7064 H       1  <0>         0.0700
     35 H35       -16.5349   -4.4158   60.3411 H       1  <0>         0.0700
     36 H36       -17.8356   -3.2187   60.1329 H       1  <0>         0.0800
     37 H37       -11.1335   -1.0850   57.7402 H       1  <0>         0.0800
     38 H38       -11.1190   -0.9209   59.5229 H       1  <0>         0.0900
     39 H39        -8.9217   -3.5516   60.2313 H       1  <0>         0.3900
     40 H40       -10.3698   -3.6692   56.8971 H       1  <0>         0.1000
     41 H41       -10.0330   -4.7469   58.2915 H       1  <0>         0.1100
     42 H42       -14.1803   -5.2936   58.1338 H       1  <0>         0.4200
     43 H43       -17.7508   -4.4167   53.6041 H       1  <0>         0.0800
     44 H44       -16.2787   -3.8089   52.8041 H       1  <0>         0.0900
     45 H45       -17.6260   -5.4698   51.4214 H       1  <0>         0.0900
     46 H46       -15.9266   -5.9291   51.6830 H       1  <0>         0.0800
     47 H47       -18.2205   -6.8953   53.4439 H       1  <0>         0.0700
     48 H48       -17.5984   -7.8106   52.0485 H       1  <0>         0.0800
     49 H49       -16.5829   -8.4427   54.3193 H       1  <0>         0.0900
     50 H50       -15.4056   -8.0077   53.0527 H       1  <0>         0.0900
     51 H51       -14.5277   -7.5233   56.0800 H       1  <0>         0.1700
@<TRIPOS>BOND
     1     1     2    1
     2     1    28    1
     3     1    29    1
     4     1    30    1
     5     2     3    1
     6     2     4    1
     7     2     5    1
     8     3    31    1
     9     3    32    1
    10     3    33    1
    11     4    34    1
    12     4    35    1
    13     4    36    1
    14     5     6    1
    15     6     7    2
    16     6     8   am
    17     8    14    1
    18     8     9    1
    19     9    10    1
    20     9    37    1
    21     9    38    1
    22    10    11    1
    23    10    12    1
    24    10    13    1
    25    12    39    1
    26    13    14    1
    27    13    40    1
    28    13    41    1
    29    14    15    1
    30    14    16    1
    31    16    17    2
    32    16    18   am
    33    18    19    1
    34    18    42    1
    35    19    27    1
    36    19    20    2
    37    20    21    1
    38    21    26    1
    39    21    22    1
    40    22    23    1
    41    22    43    1
    42    22    44    1
    43    23    24    1
    44    23    45    1
    45    23    46    1
    46    24    25    1
    47    24    47    1
    48    24    48    1
    49    25    26    1
    50    25    49    1
    51    25    50    1
    52    26    27    2
    53    27    51    1
@<TRIPOS>SUBSTRUCTURE
     1 <0>         1 TEMP              0 ****  ****    0 ROOT


##########                                Name:    ZINC000429196987
##########                DOCK_Rotatable_Bonds:                   7
##########                         Heavy_Atoms:                  28
##########                    Molecular_Weight:             403.505
##########                DOCK_Rotatable_Bonds:                   7
##########                       Formal_Charge:          -0.0399997
##########                     HBond_Acceptors:                   9
##########                        HBond_Donors:                   1
##########                         Heavy_Atoms:                  28
##########                          Grid_Score:          -31.038639
##########                     Grid_vdw_energy:          -31.823149
##########                      Grid_es_energy:            0.784509
##########           Internal_energy_repulsive:           11.824457

@<TRIPOS>MOLECULE
ZINC000429196987
 53 55 1 0 0
SMALL
USER_CHARGES


@<TRIPOS>ATOM
      1 C1         -4.0928    3.7852   52.3150 C.3     1  ZINC000429196987    0.0800
      2 N2         -2.7016    4.2418   52.3629 N.am    1  ZINC000429196987   -0.6300
      3 C3         -2.2842    5.2140   53.3762 C.3     1  ZINC000429196987    0.1600
      4 C4         -1.9551    4.4935   54.6582 C.ar    1  ZINC000429196987   -0.0600
      5 C5         -2.9576    4.2024   55.5644 C.ar    1  ZINC000429196987   -0.1300
      6 C6         -2.6557    3.5414   56.7403 C.ar    1  ZINC000429196987   -0.0300
      7 C7         -1.3514    3.1713   57.0099 C.ar    1  ZINC000429196987   -0.6600
      8 S8         -0.9665    2.3293   58.5091 S.o2    1  ZINC000429196987    2.5000
      9 C9         -1.4276    3.4991   59.8167 C.3     1  ZINC000429196987   -0.6500
     10 O10        -1.8380    1.2069   58.5144 O.2     1  ZINC000429196987   -0.9400
     11 O11         0.4438    2.1615   58.4648 O.2     1  ZINC000429196987   -0.9400
     12 C12        -0.3492    3.4612   56.1031 C.ar    1  ZINC000429196987   -0.0300
     13 C13        -0.6516    4.1187   54.9254 C.ar    1  ZINC000429196987   -0.1100
     14 C14        -1.8058    3.7675   51.4747 C.2     1  ZINC000429196987    0.7100
     15 O15        -0.6508    4.1453   51.5154 O.2     1  ZINC000429196987   -0.5800
     16 N16        -2.1901    2.8743   50.5415 N.am    1  ZINC000429196987   -0.7400
     17 C17        -1.2167    2.3600   49.5749 C.3     1  ZINC000429196987    0.1600
     18 C18        -1.7197    1.0335   48.9985 C.3     1  ZINC000429196987   -0.1300
     19 C19        -0.7287    0.5320   47.9456 C.3     1  ZINC000429196987    0.0700
     20 N20        -0.5988    1.5322   46.8784 N.3     1  ZINC000429196987   -0.4700
     21 C21         0.1929    1.0533   45.8403 C.ar    1  ZINC000429196987    0.2500
     22 C22         1.5250    0.7141   46.0743 C.ar    1  ZINC000429196987   -0.1300
     23 C23         2.2714    0.2417   45.0064 C.ar    1  ZINC000429196987   -0.1000
     24 C24         1.6480    0.1353   43.7711 C.ar    1  ZINC000429196987    0.0200
     25 N25         0.3822    0.4789   43.6395 N.ar    1  ZINC000429196987   -0.2200
     26 N26        -0.3166    0.9120   44.6252 N.ar    1  ZINC000429196987   -0.2800
     27 C27        -0.0725    2.8000   47.3998 C.3     1  ZINC000429196987    0.0600
     28 C28        -1.0437    3.3692   48.4365 C.3     1  ZINC000429196987   -0.1200
     29 H29        -4.6680    4.4403   51.6607 H       1  ZINC000429196987    0.0600
     30 H30        -4.1277    2.7659   51.9304 H       1  ZINC000429196987    0.0700
     31 H31        -4.5180    3.8096   53.3184 H       1  ZINC000429196987    0.0800
     32 H32        -1.4029    5.7501   53.0241 H       1  ZINC000429196987    0.1000
     33 H33        -3.0930    5.9225   53.5550 H       1  ZINC000429196987    0.0900
     34 H34        -3.9766    4.4916   55.3537 H       1  ZINC000429196987    0.1300
     35 H35        -3.4387    3.3145   57.4487 H       1  ZINC000429196987    0.1400
     36 H36        -2.4904    3.7290   59.7403 H       1  ZINC000429196987    0.1300
     37 H37        -1.2208    3.0555   60.7905 H       1  ZINC000429196987    0.1300
     38 H38        -0.8486    4.4158   59.7046 H       1  ZINC000429196987    0.1300
     39 H39         0.6699    3.1717   56.3136 H       1  ZINC000429196987    0.1400
     40 H40         0.1314    4.3452   54.2170 H       1  ZINC000429196987    0.1400
     41 H41        -3.1113    2.5719   50.5098 H       1  ZINC000429196987    0.4000
     42 H42        -0.2589    2.2028   50.0711 H       1  ZINC000429196987    0.0900
     43 H43        -1.8041    0.2979   49.7985 H       1  ZINC000429196987    0.0800
     44 H44        -2.6957    1.1840   48.5373 H       1  ZINC000429196987    0.0700
     45 H45         0.2434    0.3687   48.4106 H       1  ZINC000429196987    0.0600
     46 H46        -1.0912   -0.4051   47.5231 H       1  ZINC000429196987    0.0900
     47 H47         1.9616    0.8168   47.0568 H       1  ZINC000429196987    0.1500
     48 H48         3.3078   -0.0352   45.1317 H       1  ZINC000429196987    0.1500
     49 H49         2.2001   -0.2289   42.9172 H       1  ZINC000429196987    0.1700
     50 H50         0.8967    2.6260   47.8673 H       1  ZINC000429196987    0.0500
     51 H51         0.0418    3.5102   46.5808 H       1  ZINC000429196987    0.0900
     52 H52        -2.0092    3.5565   47.9664 H       1  ZINC000429196987    0.0800
     53 H53        -0.6453    4.3024   48.8347 H       1  ZINC000429196987    0.0800
@<TRIPOS>BOND
     1     1     2    1
     2     1    29    1
     3     1    30    1
     4     1    31    1
     5     2     3    1
     6     2    14   am
     7     3     4    1
     8     3    32    1
     9     3    33    1
    10     4    13   ar
    11     4     5   ar
    12     5     6   ar
    13     5    34    1
    14     6     7   ar
    15     6    35    1
    16     7     8    1
    17     7    12   ar
    18     8     9    1
    19     8    10    2
    20     8    11    2
    21     9    36    1
    22     9    37    1
    23     9    38    1
    24    12    13   ar
    25    12    39    1
    26    13    40    1
    27    14    15    2
    28    14    16   am
    29    16    17    1
    30    16    41    1
    31    17    28    1
    32    17    18    1
    33    17    42    1
    34    18    19    1
    35    18    43    1
    36    18    44    1
    37    19    20    1
    38    19    45    1
    39    19    46    1
    40    20    21    1
    41    20    27    1
    42    21    26   ar
    43    21    22   ar
    44    22    23   ar
    45    22    47    1
    46    23    24   ar
    47    23    48    1
    48    24    25   ar
    49    24    49    1
    50    25    26   ar
    51    27    28    1
    52    27    50    1
    53    27    51    1
    54    28    52    1
    55    28    53    1
@<TRIPOS>SUBSTRUCTURE
     1 ZINC000429196987        1 TEMP              0 ****  ****    0 ROOT


##########                                Name:    ZINC001342153661
##########                DOCK_Rotatable_Bonds:                   8
##########                         Heavy_Atoms:                  29
##########                    Molecular_Weight:             395.548
##########                DOCK_Rotatable_Bonds:                   8
##########                       Formal_Charge:          -0.0400005
##########                     HBond_Acceptors:                   6
##########                        HBond_Donors:                   1
##########                         Heavy_Atoms:                  29
##########                          Grid_Score:          -31.014303
##########                     Grid_vdw_energy:          -30.778925
##########                      Grid_es_energy:           -0.235379
##########           Internal_energy_repulsive:           14.747481

@<TRIPOS>MOLECULE
ZINC001342153661
 62 65 1 0 0
SMALL
USER_CHARGES


@<TRIPOS>ATOM
      1 C1        -10.4137    0.1644   56.2666 C.2     1  ZINC001342153661   -0.1400
      2 C2        -11.4782   -0.3224   55.6783 C.2     1  ZINC001342153661   -0.1600
      3 C3        -11.3877   -0.8422   54.2667 C.3     1  ZINC001342153661   -0.1200
      4 C4        -12.7932   -0.3624   56.4131 C.3     1  ZINC001342153661    0.1500
      5 N5        -13.0879   -1.7407   56.8125 N.pl3   1  ZINC001342153661   -0.4700
      6 C6        -14.0851   -2.5440   56.3328 C.2     1  ZINC001342153661    0.1800
      7 C7        -15.1006   -2.1761   55.2819 C.3     1  ZINC001342153661   -0.0600
      8 C8        -16.2890   -3.1363   55.3626 C.3     1  ZINC001342153661    0.1600
      9 H9        -16.4338   -3.4490   56.3967 H       1  ZINC001342153661    0.1000
     10 O10       -17.4673   -2.4762   54.8954 O.3     1  ZINC001342153661   -0.5400
     11 C11       -16.0171   -4.3454   54.5053 C.ar    1  ZINC001342153661   -0.1700
     12 C12       -16.0840   -4.2555   53.1236 C.ar    1  ZINC001342153661   -0.0600
     13 C13       -15.8256   -5.3938   52.3748 C.ar    1  ZINC001342153661   -0.1700
     14 C14       -15.5125   -6.5715   53.0263 C.ar    1  ZINC001342153661    0.1000
     15 N15       -15.4579   -6.6202   54.3431 N.ar    1  ZINC001342153661   -0.4800
     16 C16       -15.6923   -5.5567   55.0865 C.ar    1  ZINC001342153661    0.1100
     17 N17       -13.9940   -3.6867   56.9522 N.2     1  ZINC001342153661   -0.2700
     18 N18       -13.0148   -3.6603   57.7841 N.2     1  ZINC001342153661   -0.3200
     19 C19       -12.4205   -2.4914   57.7361 C.2     1  ZINC001342153661    0.3600
     20 N20       -11.3269   -2.0917   58.4876 N.3     1  ZINC001342153661   -0.4500
     21 C21       -10.2524   -3.0906   58.4258 C.3     1  ZINC001342153661    0.0500
     22 C22        -9.0123   -2.5529   59.1436 C.3     1  ZINC001342153661   -0.1200
     23 C23        -9.3655   -2.2454   60.6014 C.3     1  ZINC001342153661   -0.1200
     24 C24       -10.5193   -1.2394   60.6375 C.3     1  ZINC001342153661   -0.0800
     25 H25       -10.2042   -0.3072   60.1687 H       1  ZINC001342153661    0.0800
     26 C26       -10.9178   -0.9713   62.0902 C.3     1  ZINC001342153661   -0.0800
     27 C27        -9.6668   -0.6511   62.9453 C.3     1  ZINC001342153661   -0.1200
     28 C28       -10.2584    0.1547   64.1284 C.3     1  ZINC001342153661   -0.1300
     29 C29       -11.3597    1.0209   63.4829 C.3     1  ZINC001342153661   -0.1300
     30 C30       -11.7790    0.3050   62.1869 C.3     1  ZINC001342153661   -0.1200
     31 C31       -11.7157   -1.8152   59.8765 C.3     1  ZINC001342153661    0.0800
     32 H32        -9.4712    0.1931   55.7400 H       1  ZINC001342153661    0.1000
     33 H33       -10.4796    0.5409   57.2766 H       1  ZINC001342153661    0.1100
     34 H34       -11.0551   -1.8800   54.2822 H       1  ZINC001342153661    0.0700
     35 H35       -12.3678   -0.7817   53.7937 H       1  ZINC001342153661    0.0600
     36 H36       -10.6746   -0.2406   53.7029 H       1  ZINC001342153661    0.0700
     37 H37       -12.7330    0.2679   57.3004 H       1  ZINC001342153661    0.1000
     38 H38       -13.5855    0.0039   55.7604 H       1  ZINC001342153661    0.1000
     39 H39       -15.4455   -1.1560   55.4513 H       1  ZINC001342153661    0.1100
     40 H40       -14.6436   -2.2457   54.2947 H       1  ZINC001342153661    0.1000
     41 H41       -17.3901   -2.1215   53.9991 H       1  ZINC001342153661    0.3800
     42 H42       -16.3317   -3.3212   52.6416 H       1  ZINC001342153661    0.1300
     43 H43       -15.8691   -5.3603   51.2962 H       1  ZINC001342153661    0.1400
     44 H44       -15.3103   -7.4624   52.4504 H       1  ZINC001342153661    0.1600
     45 H45       -15.6384   -5.6351   56.1624 H       1  ZINC001342153661    0.1500
     46 H46       -10.5824   -4.0096   58.9104 H       1  ZINC001342153661    0.0500
     47 H47       -10.0080   -3.2971   57.3838 H       1  ZINC001342153661    0.0700
     48 H48        -8.2200   -3.3009   59.1111 H       1  ZINC001342153661    0.0800
     49 H49        -8.6734   -1.6414   58.6512 H       1  ZINC001342153661    0.0700
     50 H50        -9.6672   -3.1640   61.1047 H       1  ZINC001342153661    0.0600
     51 H51        -8.4967   -1.8215   61.1050 H       1  ZINC001342153661    0.0700
     52 H52       -11.4549   -1.8260   62.5014 H       1  ZINC001342153661    0.0800
     53 H53        -9.1960   -1.5682   63.2997 H       1  ZINC001342153661    0.0700
     54 H54        -8.9580   -0.0449   62.3811 H       1  ZINC001342153661    0.0700
     55 H55       -10.6882   -0.5177   64.8709 H       1  ZINC001342153661    0.0600
     56 H56        -9.4933    0.7853   64.5810 H       1  ZINC001342153661    0.0600
     57 H57       -12.2126    1.1034   64.1565 H       1  ZINC001342153661    0.0600
     58 H58       -10.9682    2.0117   63.2523 H       1  ZINC001342153661    0.0600
     59 H59       -11.5909    0.9484   61.3274 H       1  ZINC001342153661    0.0600
     60 H60       -12.8353    0.0402   62.2317 H       1  ZINC001342153661    0.0600
     61 H61       -12.5340   -1.0954   59.8882 H       1  ZINC001342153661    0.0900
     62 H62       -12.0389   -2.7402   60.3542 H       1  ZINC001342153661    0.0500
@<TRIPOS>BOND
     1     1     2    2
     2     1    32    1
     3     1    33    1
     4     2     3    1
     5     2     4    1
     6     3    34    1
     7     3    35    1
     8     3    36    1
     9     4     5    1
    10     4    37    1
    11     4    38    1
    12     5    19    1
    13     5     6    1
    14     6     7    1
    15     6    17    2
    16     7     8    1
    17     7    39    1
    18     7    40    1
    19     8     9    1
    20     8    10    1
    21     8    11    1
    22    10    41    1
    23    11    16   ar
    24    11    12   ar
    25    12    13   ar
    26    12    42    1
    27    13    14   ar
    28    13    43    1
    29    14    15   ar
    30    14    44    1
    31    15    16   ar
    32    16    45    1
    33    17    18    1
    34    18    19    2
    35    19    20    1
    36    20    31    1
    37    20    21    1
    38    21    22    1
    39    21    46    1
    40    21    47    1
    41    22    23    1
    42    22    48    1
    43    22    49    1
    44    23    24    1
    45    23    50    1
    46    23    51    1
    47    24    25    1
    48    24    26    1
    49    24    31    1
    50    26    30    1
    51    26    27    1
    52    26    52    1
    53    27    28    1
    54    27    53    1
    55    27    54    1
    56    28    29    1
    57    28    55    1
    58    28    56    1
    59    29    30    1
    60    29    57    1
    61    29    58    1
    62    30    59    1
    63    30    60    1
    64    31    61    1
    65    31    62    1
@<TRIPOS>SUBSTRUCTURE
     1 ZINC001342153661        1 TEMP              0 ****  ****    0 ROOT


##########                                Name:    ZINC000432058199
##########                DOCK_Rotatable_Bonds:                   5
##########                         Heavy_Atoms:                  30
##########                    Molecular_Weight:             406.441
##########                DOCK_Rotatable_Bonds:                   5
##########                       Formal_Charge:        -4.02331e-07
##########                     HBond_Acceptors:                   8
##########                        HBond_Donors:                   1
##########                         Heavy_Atoms:                  30
##########                          Grid_Score:          -31.008530
##########                     Grid_vdw_energy:          -28.823629
##########                      Grid_es_energy:           -2.184901
##########           Internal_energy_repulsive:           16.064728

@<TRIPOS>MOLECULE
ZINC000432058199
 52 55 1 0 0
SMALL
USER_CHARGES


@<TRIPOS>ATOM
      1 C1         -9.5086   -1.2396   62.0673 C.3     1  ZINC000432058199    0.0300
      2 O2        -10.7617   -1.8126   61.6884 O.3     1  ZINC000432058199   -0.3100
      3 C3        -11.1278   -1.6891   60.3854 C.ar    1  ZINC000432058199    0.1300
      4 C4        -12.3332   -2.2216   59.9498 C.ar    1  ZINC000432058199   -0.1900
      5 C5        -12.7094   -2.0982   58.6253 C.ar    1  ZINC000432058199   -0.0800
      6 C6        -11.8882   -1.4447   57.7286 C.ar    1  ZINC000432058199   -0.1100
      7 C7        -10.6764   -0.9067   58.1581 C.ar    1  ZINC000432058199    0.0100
      8 C8         -9.7918   -0.2031   57.1960 C.2     1  ZINC000432058199    0.2100
      9 N9         -8.6709    0.4086   57.4766 N.2     1  ZINC000432058199   -0.3700
     10 O10        -8.1904    0.8816   56.4683 O.3     1  ZINC000432058199    0.1200
     11 C11        -8.9736    0.6135   55.4188 C.2     1  ZINC000432058199    0.1600
     12 C12        -8.7275    1.0250   53.9901 C.3     1  ZINC000432058199    0.2500
     13 H13        -8.1586    0.2472   53.4808 H       1  ZINC000432058199    0.1500
     14 C14        -7.9364    2.3344   53.9655 C.3     1  ZINC000432058199   -0.1700
     15 N15       -10.0105    1.2168   53.3092 N.am    1  ZINC000432058199   -0.5800
     16 C16       -10.9476    2.0869   53.7028 C.2     1  ZINC000432058199    0.7000
     17 O17       -10.8319    2.8122   54.6712 O.2     1  ZINC000432058199   -0.5100
     18 N18       -12.0319    2.0693   52.9069 N.am    1  ZINC000432058199   -0.7200
     19 C19       -11.7721    1.0628   51.8630 C.3     1  ZINC000432058199    0.1400
     20 H20       -12.5096    0.2616   51.9108 H       1  ZINC000432058199    0.1400
     21 C21       -11.7736    1.7018   50.4982 C.ar    1  ZINC000432058199   -0.1000
     22 C22       -11.0805    2.8789   50.2854 C.ar    1  ZINC000432058199   -0.1000
     23 C23       -11.0819    3.4651   49.0335 C.ar    1  ZINC000432058199   -0.0800
     24 C24       -10.3268    4.7485   48.8016 C.3     1  ZINC000432058199   -0.1200
     25 C25       -11.7754    2.8738   47.9942 C.ar    1  ZINC000432058199   -0.1100
     26 C26       -12.4681    1.6965   48.2069 C.ar    1  ZINC000432058199   -0.0800
     27 C27       -13.2246    1.0521   47.0739 C.3     1  ZINC000432058199   -0.1200
     28 C28       -12.4633    1.1081   49.4577 C.ar    1  ZINC000432058199   -0.1000
     29 C29       -10.3902    0.5426   52.2058 C.2     1  ZINC000432058199    0.5300
     30 O30        -9.7600   -0.3073   51.6139 O.2     1  ZINC000432058199   -0.4500
     31 N31        -9.9916   -0.0798   55.8644 N.2     1  ZINC000432058199   -0.4500
     32 C32       -10.3003   -1.0266   59.4932 C.ar    1  ZINC000432058199   -0.1200
     33 H33        -9.3385   -1.4087   63.1306 H       1  ZINC000432058199    0.1000
     34 H34        -8.7077   -1.7050   61.4927 H       1  ZINC000432058199    0.0600
     35 H35        -9.5238   -0.1681   61.8676 H       1  ZINC000432058199    0.0600
     36 H36       -12.9789   -2.7341   60.6475 H       1  ZINC000432058199    0.1400
     37 H37       -13.6482   -2.5146   58.2910 H       1  ZINC000432058199    0.1400
     38 H38       -12.1846   -1.3505   56.6944 H       1  ZINC000432058199    0.1400
     39 H39        -8.5053    3.1123   54.4748 H       1  ZINC000432058199    0.0900
     40 H40        -6.9819    2.1918   54.4721 H       1  ZINC000432058199    0.0900
     41 H41        -7.7585    2.6320   52.9321 H       1  ZINC000432058199    0.0900
     42 H42       -12.8296    2.6130   53.0020 H       1  ZINC000432058199    0.4500
     43 H43       -10.5383    3.3406   51.0973 H       1  ZINC000432058199    0.1200
     44 H44        -9.3069    4.5192   48.4926 H       1  ZINC000432058199    0.0700
     45 H45       -10.8221    5.3254   48.0207 H       1  ZINC000432058199    0.0700
     46 H46       -10.3052    5.3290   49.7239 H       1  ZINC000432058199    0.0700
     47 H47       -11.7765    3.3318   47.0161 H       1  ZINC000432058199    0.1300
     48 H48       -12.5692    0.3582   46.5478 H       1  ZINC000432058199    0.0700
     49 H49       -14.0829    0.5107   47.4718 H       1  ZINC000432058199    0.0700
     50 H50       -13.5690    1.8216   46.3829 H       1  ZINC000432058199    0.0700
     51 H51       -13.0044    0.1884   49.6239 H       1  ZINC000432058199    0.1300
     52 H52        -9.3622   -0.6114   59.8309 H       1  ZINC000432058199    0.1400
@<TRIPOS>BOND
     1     1     2    1
     2     1    33    1
     3     1    34    1
     4     1    35    1
     5     2     3    1
     6     3    32   ar
     7     3     4   ar
     8     4     5   ar
     9     4    36    1
    10     5     6   ar
    11     5    37    1
    12     6     7   ar
    13     6    38    1
    14     7     8    1
    15     7    32   ar
    16     8    31    1
    17     8     9    2
    18     9    10    1
    19    10    11    1
    20    11    12    1
    21    11    31    2
    22    12    13    1
    23    12    14    1
    24    12    15    1
    25    14    39    1
    26    14    40    1
    27    14    41    1
    28    15    29   am
    29    15    16   am
    30    16    17    2
    31    16    18   am
    32    18    19    1
    33    18    42    1
    34    19    20    1
    35    19    21    1
    36    19    29    1
    37    21    28   ar
    38    21    22   ar
    39    22    23   ar
    40    22    43    1
    41    23    24    1
    42    23    25   ar
    43    24    44    1
    44    24    45    1
    45    24    46    1
    46    25    26   ar
    47    25    47    1
    48    26    27    1
    49    26    28   ar
    50    27    48    1
    51    27    49    1
    52    27    50    1
    53    28    51    1
    54    29    30    2
    55    32    52    1
@<TRIPOS>SUBSTRUCTURE
     1 ZINC000432058199        1 TEMP              0 ****  ****    0 ROOT


##########                                Name:     oleObject17.pdb
##########                DOCK_Rotatable_Bonds:                   8
##########                         Heavy_Atoms:                  29
##########                    Molecular_Weight:             435.393
##########                DOCK_Rotatable_Bonds:                   8
##########                       Formal_Charge:         0.000400059
##########                     HBond_Acceptors:                   6
##########                        HBond_Donors:                   0
##########                         Heavy_Atoms:                  29
##########                          Grid_Score:          -31.002909
##########                     Grid_vdw_energy:          -30.173403
##########                      Grid_es_energy:           -0.829506
##########           Internal_energy_repulsive:           18.521309

@<TRIPOS>MOLECULE
oleObject17.pdb
 57 59 1 0 0
SMALL
NO_CHARGES


@<TRIPOS>ATOM
      1 C         -10.2034    0.9693   51.8605 C.3     1  UNL         0.0391
      2 C          -8.8234    1.5573   52.1623 C.ar    1  UNL        -0.0277
      3 C          -7.6424    0.7731   52.1829 C.ar    1  UNL        -0.0463
      4 C          -6.4125    1.3819   52.5015 C.ar    1  UNL        -0.0590
      5 C          -6.3443    2.7518   52.7939 C.ar    1  UNL        -0.0620
      6 C          -7.5077    3.5316   52.7566 C.ar    1  UNL        -0.0619
      7 C          -8.7371    2.9365   52.4370 C.ar    1  UNL        -0.0572
      8 C          -7.6523   -0.7179   51.8636 C.3     1  UNL        -0.0394
      9 N         -11.0773    0.9216   53.0523 N.am    1  UNL        -0.3003
     10 C         -11.2741   -0.2683   53.7528 C.2     1  UNL         0.2175
     11 O         -10.5044   -1.2007   53.5942 O.2     1  UNL        -0.2772
     12 C         -12.2111   -0.2019   54.9877 C.3     1  UNL         0.0384
     13 C         -11.5674    0.5373   56.1880 C.3     1  UNL        -0.0289
     14 C         -10.4136   -0.2808   56.7999 C.3     1  UNL        -0.0010
     15 N         -10.8597   -1.6244   57.2291 N.4     1  UNL        -0.3010
     16 C         -11.5533   -2.4057   56.1782 C.3     1  UNL        -0.0010
     17 C         -12.6757   -1.6029   55.4711 C.3     1  UNL        -0.0289
     18 C          -9.8140   -2.3878   57.9479 C.3     1  UNL         0.0222
     19 C          -9.4271   -1.7743   59.3135 C.3     1  UNL         0.0661
     20 O         -10.6104   -1.6943   60.1260 O.3     1  UNL        -0.3432
     21 C         -10.6192   -1.1188   61.3823 C.ar    1  UNL         0.0937
     22 C          -9.4440   -0.6155   61.9810 C.ar    1  UNL        -0.0288
     23 C          -9.4952   -0.0299   63.2566 C.ar    1  UNL        -0.0408
     24 C         -10.7168    0.0543   63.9427 C.ar    1  UNL         0.0422
     25 C         -11.8892   -0.4475   63.3561 C.ar    1  UNL        -0.0221
     26 C         -11.8412   -1.0330   62.0798 C.ar    1  UNL         0.0723
     27 CL        -13.3249   -1.6448   61.3729 Cl      1  UNL        -0.0814
     28 CL        -10.7777    0.7854   65.5322 Cl      1  UNL        -0.0843
     29 C         -11.7208    2.1909   53.4373 C.3     1  UNL         0.0031
     30 H         -10.1207   -0.0450   51.4546 H       1  UNL         0.0520
     31 H         -10.6751    1.5808   51.0810 H       1  UNL         0.0520
     32 H          -5.5010    0.7914   52.5243 H       1  UNL         0.0626
     33 H          -5.3903    3.2085   53.0419 H       1  UNL         0.0623
     34 H          -7.4581    4.5941   52.9767 H       1  UNL         0.0623
     35 H          -9.6330    3.5498   52.4155 H       1  UNL         0.0626
     36 H          -8.1167   -0.9115   50.8889 H       1  UNL         0.0280
     37 H          -8.2031   -1.2837   52.6235 H       1  UNL         0.0280
     38 H          -6.6367   -1.1305   51.8234 H       1  UNL         0.0280
     39 H         -13.1074    0.3516   54.6837 H       1  UNL         0.0402
     40 H         -12.3301    0.7058   56.9593 H       1  UNL         0.0288
     41 H         -11.2031    1.5274   55.8951 H       1  UNL         0.0288
     42 H         -10.0038    0.2686   57.6572 H       1  UNL         0.0431
     43 H          -9.6191   -0.3712   56.0505 H       1  UNL         0.0431
     44 H         -11.9928   -3.3087   56.6209 H       1  UNL         0.0431
     45 H         -10.8294   -2.7376   55.4256 H       1  UNL         0.0431
     46 H         -13.5057   -1.4738   56.1778 H       1  UNL         0.0288
     47 H         -13.0731   -2.1819   54.6276 H       1  UNL         0.0288
     48 H          -8.9138   -2.4535   57.3234 H       1  UNL         0.0455
     49 H         -10.1675   -3.4134   58.1151 H       1  UNL         0.0455
     50 H          -9.0157   -0.7688   59.1687 H       1  UNL         0.0586
     51 H          -8.6724   -2.3994   59.8059 H       1  UNL         0.0586
     52 H          -8.4880   -0.6730   61.4708 H       1  UNL         0.0651
     53 H          -8.5876    0.3567   63.7119 H       1  UNL         0.0639
     54 H         -12.8339   -0.3822   63.8883 H       1  UNL         0.0655
     55 H         -11.9575    2.7827   52.5440 H       1  UNL         0.0433
     56 H         -11.0509    2.7730   54.0815 H       1  UNL         0.0433
     57 H         -12.6577    1.9939   53.9728 H       1  UNL         0.0433
@<TRIPOS>BOND
     1     1     2    1
     2     1     9    1
     3     1    30    1
     4     1    31    1
     5     2     3   ar
     6     2     7   ar
     7     3     4   ar
     8     3     8    1
     9     4     5   ar
    10     4    32    1
    11     5     6   ar
    12     5    33    1
    13     6     7   ar
    14     6    34    1
    15     7    35    1
    16     8    36    1
    17     8    37    1
    18     8    38    1
    19     9    10   am
    20     9    29    1
    21    10    11    2
    22    10    12    1
    23    12    13    1
    24    12    17    1
    25    12    39    1
    26    13    14    1
    27    13    40    1
    28    13    41    1
    29    14    15    1
    30    14    42    1
    31    14    43    1
    32    15    16    1
    33    15    18    1
    34    16    17    1
    35    16    44    1
    36    16    45    1
    37    17    46    1
    38    17    47    1
    39    18    19    1
    40    18    48    1
    41    18    49    1
    42    19    20    1
    43    19    50    1
    44    19    51    1
    45    20    21    1
    46    21    22   ar
    47    21    26   ar
    48    22    23   ar
    49    22    52    1
    50    23    24   ar
    51    23    53    1
    52    24    25   ar
    53    24    28    1
    54    25    26   ar
    55    25    54    1
    56    26    27    1
    57    29    55    1
    58    29    56    1
    59    29    57    1
@<TRIPOS>SUBSTRUCTURE
     1 UNL         1 TEMP              0 ****  ****    0 ROOT


##########                                Name:    ZINC001328997126
##########                DOCK_Rotatable_Bonds:                   7
##########                         Heavy_Atoms:                  26
##########                    Molecular_Weight:             388.488
##########                DOCK_Rotatable_Bonds:                   7
##########                       Formal_Charge:           0.0299993
##########                     HBond_Acceptors:                  10
##########                        HBond_Donors:                   1
##########                         Heavy_Atoms:                  26
##########                          Grid_Score:          -30.989378
##########                     Grid_vdw_energy:          -29.869497
##########                      Grid_es_energy:           -1.119881
##########           Internal_energy_repulsive:           15.886956

@<TRIPOS>MOLECULE
ZINC001328997126
 54 56 1 0 0
SMALL
USER_CHARGES


@<TRIPOS>ATOM
      1 C1          7.2090   -0.1614   55.5804 C.3     1  ZINC001328997126   -0.1700
      2 C2          7.4445   -0.0659   54.0716 C.3     1  ZINC001328997126    0.1400
      3 N3          6.2297    0.4272   53.4181 N.am    1  ZINC001328997126   -0.6300
      4 C4          5.9091    1.8398   53.1623 C.3     1  ZINC001328997126    0.0700
      5 C5          4.5370    1.7839   52.4634 C.3     1  ZINC001328997126    0.0700
      6 H6          4.6014    2.2064   51.4607 H       1  ZINC001328997126    0.1200
      7 C7          3.4837    2.5250   53.2895 C.3     1  ZINC001328997126    0.0500
      8 N8          2.4348    3.0384   52.3984 N.3     1  ZINC001328997126   -0.5300
      9 C9          1.3221    3.6104   53.1693 C.3     1  ZINC001328997126    0.0500
     10 C10         0.2904    4.2040   52.2073 C.3     1  ZINC001328997126    0.0600
     11 N11        -0.1880    3.1539   51.2972 N.3     1  ZINC001328997126   -0.5200
     12 C12        -1.2369    3.6673   50.4060 C.3     1  ZINC001328997126    0.0400
     13 C13        -1.6253    2.5973   49.4185 C.2     1  ZINC001328997126    0.5200
     14 O14        -2.4555    1.7662   49.7202 O.2     1  ZINC001328997126   -0.5100
     15 N15        -1.0500    2.5638   48.2002 N.am    1  ZINC001328997126   -0.7300
     16 C16        -1.4263    1.5225   47.2408 C.3     1  ZINC001328997126    0.1600
     17 H17        -2.5122    1.4725   47.1616 H       1  ZINC001328997126    0.1100
     18 C18        -0.8214    1.8451   45.8633 C.3     1  ZINC001328997126   -0.1400
     19 C19        -0.9712    0.5646   45.0020 C.3     1  ZINC001328997126   -0.5800
     20 S20        -0.5114   -0.7634   46.1788 S.o2    1  ZINC001328997126    2.4000
     21 O21        -1.4242   -1.8446   46.0487 O.2     1  ZINC001328997126   -0.9300
     22 O22         0.8867   -1.0035   46.0950 O.2     1  ZINC001328997126   -0.9300
     23 C23        -0.8777    0.1609   47.7120 C.3     1  ZINC001328997126   -0.6100
     24 C24         0.9246    2.5820   50.5262 C.3     1  ZINC001328997126    0.0500
     25 C25         1.9564    1.9884   51.4883 C.3     1  ZINC001328997126    0.0600
     26 O26         4.2314    0.3608   52.3993 O.3     1  ZINC001328997126   -0.3100
     27 C27         5.2318   -0.3354   52.9507 C.2     1  ZINC001328997126    0.6400
     28 O28         5.2320   -1.5480   53.0280 O.2     1  ZINC001328997126   -0.5200
     29 H29         6.9603    0.8248   55.9725 H       1  ZINC001328997126    0.0600
     30 H30         6.3863   -0.8487   55.7769 H       1  ZINC001328997126    0.0600
     31 H31         8.1129   -0.5283   56.0667 H       1  ZINC001328997126    0.0700
     32 H32         8.2674    0.6214   53.8751 H       1  ZINC001328997126    0.0900
     33 H33         7.6933   -1.0521   53.6796 H       1  ZINC001328997126    0.0900
     34 H34         5.8393    2.3923   54.0993 H       1  ZINC001328997126    0.0900
     35 H35         6.6549    2.2890   52.5064 H       1  ZINC001328997126    0.0900
     36 H36         3.0423    1.8404   54.0137 H       1  ZINC001328997126    0.0900
     37 H37         3.9532    3.3566   53.8149 H       1  ZINC001328997126    0.0600
     38 H38         0.8541    2.8283   53.7672 H       1  ZINC001328997126    0.0500
     39 H39         1.6997    4.3938   53.8263 H       1  ZINC001328997126    0.0900
     40 H40        -0.5496    4.6030   52.7758 H       1  ZINC001328997126    0.0800
     41 H41         0.7512    5.0044   51.6285 H       1  ZINC001328997126    0.0500
     42 H42        -2.1085    3.9507   50.9962 H       1  ZINC001328997126    0.1100
     43 H43        -0.8628    4.5390   49.8689 H       1  ZINC001328997126    0.0700
     44 H44        -0.3868    3.2291   47.9586 H       1  ZINC001328997126    0.4100
     45 H45        -1.3631    2.6708   45.4018 H       1  ZINC001328997126    0.1100
     46 H46         0.2325    2.1025   45.9694 H       1  ZINC001328997126    0.0900
     47 H47        -2.0007    0.4433   44.6649 H       1  ZINC001328997126    0.1400
     48 H48        -0.2855    0.5855   44.1551 H       1  ZINC001328997126    0.1400
     49 H49         0.0317    0.2995   48.2969 H       1  ZINC001328997126    0.1400
     50 H50        -1.6305   -0.3642   48.2999 H       1  ZINC001328997126    0.1500
     51 H51         0.5470    1.7985   49.8693 H       1  ZINC001328997126    0.1000
     52 H52         1.3926    3.3641   49.9284 H       1  ZINC001328997126    0.0400
     53 H53         2.7965    1.5894   50.9198 H       1  ZINC001328997126    0.0800
     54 H54         1.4956    1.1879   52.0671 H       1  ZINC001328997126    0.0500
@<TRIPOS>BOND
     1     1     2    1
     2     1    29    1
     3     1    30    1
     4     1    31    1
     5     2     3    1
     6     2    32    1
     7     2    33    1
     8     3    27   am
     9     3     4    1
    10     4     5    1
    11     4    34    1
    12     4    35    1
    13     5     6    1
    14     5     7    1
    15     5    26    1
    16     7     8    1
    17     7    36    1
    18     7    37    1
    19     8    25    1
    20     8     9    1
    21     9    10    1
    22     9    38    1
    23     9    39    1
    24    10    11    1
    25    10    40    1
    26    10    41    1
    27    11    12    1
    28    11    24    1
    29    12    13    1
    30    12    42    1
    31    12    43    1
    32    13    14    2
    33    13    15   am
    34    15    16    1
    35    15    44    1
    36    16    17    1
    37    16    23    1
    38    16    18    1
    39    18    19    1
    40    18    45    1
    41    18    46    1
    42    19    20    1
    43    19    47    1
    44    19    48    1
    45    20    21    2
    46    20    22    2
    47    20    23    1
    48    23    49    1
    49    23    50    1
    50    24    25    1
    51    24    51    1
    52    24    52    1
    53    25    53    1
    54    25    54    1
    55    26    27    1
    56    27    28    2
@<TRIPOS>SUBSTRUCTURE
     1 ZINC001328997126        1 TEMP              0 ****  ****    0 ROOT


##########                                Name:    ZINC001191196975
##########                DOCK_Rotatable_Bonds:                  14
##########                         Heavy_Atoms:                  24
##########                    Molecular_Weight:             339.438
##########                DOCK_Rotatable_Bonds:                  14
##########                       Formal_Charge:          0.00999969
##########                     HBond_Acceptors:                   8
##########                        HBond_Donors:                   4
##########                         Heavy_Atoms:                  24
##########                          Grid_Score:          -30.977978
##########                     Grid_vdw_energy:          -29.795166
##########                      Grid_es_energy:           -1.182811
##########           Internal_energy_repulsive:           13.813623

@<TRIPOS>MOLECULE
ZINC001191196975
 53 53 1 0 0
SMALL
USER_CHARGES


@<TRIPOS>ATOM
      1 C1          1.5716    6.5846   44.7642 C.2     1  ZINC001191196975   -0.1600
      2 C2          2.2125    5.7262   44.0104 C.2     1  ZINC001191196975   -0.1800
      3 C3          1.4433    4.7341   43.1766 C.3     1  ZINC001191196975    0.1500
      4 N4          1.2199    3.5123   43.9535 N.am    1  ZINC001191196975   -0.7300
      5 C5          1.1209    2.3236   43.3263 C.2     1  ZINC001191196975    0.5100
      6 O6          1.2181    2.2651   42.1189 O.2     1  ZINC001191196975   -0.5200
      7 C7          0.8893    1.0670   44.1254 C.3     1  ZINC001191196975    0.0300
      8 N8         -0.2848    1.2460   44.9900 N.3     1  ZINC001191196975   -0.5100
      9 C9         -1.4632    0.5770   44.4226 C.3     1  ZINC001191196975    0.0200
     10 C10        -0.0133    0.7681   46.3523 C.3     1  ZINC001191196975    0.0700
     11 H11         0.2461   -0.2905   46.3483 H       1  ZINC001191196975    0.0600
     12 C12        -1.2200    1.0417   47.2885 C.3     1  ZINC001191196975   -0.1200
     13 C13        -0.5619    1.1392   48.6809 C.3     1  ZINC001191196975    0.1000
     14 N14         0.8547    1.4724   48.4720 N.am    1  ZINC001191196975   -0.6200
     15 C15         1.7772    1.6253   49.4426 C.2     1  ZINC001191196975    0.5300
     16 O16         2.9218    1.9026   49.1531 O.2     1  ZINC001191196975   -0.5400
     17 C17         1.3864    1.4516   50.8876 C.3     1  ZINC001191196975   -0.1300
     18 C18         2.4238    2.1333   51.7820 C.3     1  ZINC001191196975   -0.1000
     19 C19         3.5412    1.1424   52.1137 C.3     1  ZINC001191196975   -0.1300
     20 C20         4.5293    1.7936   53.0835 C.3     1  ZINC001191196975    0.1400
     21 N21         5.5849    0.8358   53.4219 N.am    1  ZINC001191196975   -0.7500
     22 C22         6.1878    0.8949   54.6257 C.2     1  ZINC001191196975    0.7000
     23 N23         7.1578    0.0127   54.9376 N.am    1  ZINC001191196975   -0.8700
     24 O24         5.8567    1.7441   55.4305 O.2     1  ZINC001191196975   -0.5900
     25 C25         1.1001    1.6100   47.0243 C.3     1  ZINC001191196975    0.1100
     26 H26         0.4918    6.5813   44.7883 H       1  ZINC001191196975    0.1000
     27 H27         2.1230    7.2926   45.3651 H       1  ZINC001191196975    0.1000
     28 H28         3.2923    5.7294   43.9862 H       1  ZINC001191196975    0.1200
     29 H29         0.4830    5.1650   42.8931 H       1  ZINC001191196975    0.0800
     30 H30         2.0133    4.4947   42.2789 H       1  ZINC001191196975    0.0700
     31 H31         1.1433    3.5590   44.9193 H       1  ZINC001191196975    0.4000
     32 H32         0.7170    0.2315   43.4470 H       1  ZINC001191196975    0.0700
     33 H33         1.7653    0.8610   44.7405 H       1  ZINC001191196975    0.1100
     34 H34        -1.2257   -0.4673   44.2198 H       1  ZINC001191196975    0.0200
     35 H35        -2.2885    0.6308   45.1325 H       1  ZINC001191196975    0.0700
     36 H36        -1.7498    1.0713   43.4943 H       1  ZINC001191196975    0.0900
     37 H37        -1.7071    1.9807   47.0255 H       1  ZINC001191196975    0.0900
     38 H38        -1.9297    0.2151   47.2543 H       1  ZINC001191196975    0.0800
     39 H39        -1.0447    1.9227   49.2651 H       1  ZINC001191196975    0.0700
     40 H40        -0.6455    0.1834   49.1983 H       1  ZINC001191196975    0.0700
     41 H41         0.4085    1.9029   51.0562 H       1  ZINC001191196975    0.0900
     42 H42         1.3423    0.3892   51.1270 H       1  ZINC001191196975    0.0900
     43 H43         2.8438    2.9935   51.2607 H       1  ZINC001191196975    0.0800
     44 H44         1.9466    2.4649   52.7043 H       1  ZINC001191196975    0.0800
     45 H45         3.1126    0.2525   52.5747 H       1  ZINC001191196975    0.0700
     46 H46         4.0620    0.8623   51.1981 H       1  ZINC001191196975    0.0700
     47 H47         4.9725    2.6724   52.6151 H       1  ZINC001191196975    0.0700
     48 H48         4.0044    2.0916   53.9912 H       1  ZINC001191196975    0.0700
     49 H49         5.8498    0.1591   52.7793 H       1  ZINC001191196975    0.4000
     50 H50         7.5910    0.0544   55.8045 H       1  ZINC001191196975    0.4000
     51 H51         7.4228   -0.6640   54.2950 H       1  ZINC001191196975    0.4200
     52 H52         2.0830    1.2155   46.7669 H       1  ZINC001191196975    0.0800
     53 H53         1.0189    2.6544   46.7234 H       1  ZINC001191196975    0.0800
@<TRIPOS>BOND
     1     1     2    2
     2     1    26    1
     3     1    27    1
     4     2     3    1
     5     2    28    1
     6     3     4    1
     7     3    29    1
     8     3    30    1
     9     4     5   am
    10     4    31    1
    11     5     6    2
    12     5     7    1
    13     7     8    1
    14     7    32    1
    15     7    33    1
    16     8     9    1
    17     8    10    1
    18     9    34    1
    19     9    35    1
    20     9    36    1
    21    10    11    1
    22    10    25    1
    23    10    12    1
    24    12    13    1
    25    12    37    1
    26    12    38    1
    27    13    14    1
    28    13    39    1
    29    13    40    1
    30    14    15   am
    31    14    25    1
    32    15    16    2
    33    15    17    1
    34    17    18    1
    35    17    41    1
    36    17    42    1
    37    18    19    1
    38    18    43    1
    39    18    44    1
    40    19    20    1
    41    19    45    1
    42    19    46    1
    43    20    21    1
    44    20    47    1
    45    20    48    1
    46    21    22   am
    47    21    49    1
    48    22    23   am
    49    22    24    2
    50    23    50    1
    51    23    51    1
    52    25    52    1
    53    25    53    1
@<TRIPOS>SUBSTRUCTURE
     1 ZINC001191196975        1 TEMP              0 ****  ****    0 ROOT


##########                                Name:    ZINC000482846390
##########                DOCK_Rotatable_Bonds:                   9
##########                         Heavy_Atoms:                  30
##########                    Molecular_Weight:             420.469
##########                DOCK_Rotatable_Bonds:                   9
##########                       Formal_Charge:          -0.0100011
##########                     HBond_Acceptors:                  11
##########                        HBond_Donors:                   2
##########                         Heavy_Atoms:                  30
##########                          Grid_Score:          -30.977741
##########                     Grid_vdw_energy:          -30.881655
##########                      Grid_es_energy:           -0.096086
##########           Internal_energy_repulsive:           25.084232

@<TRIPOS>MOLECULE
ZINC000482846390
 58 60 1 0 0
SMALL
USER_CHARGES


@<TRIPOS>ATOM
      1 C1        -11.9215    2.6072   60.8436 C.3     1  ZINC000482846390   -0.1000
      2 C2        -11.7253    1.1666   61.2403 C.2     1  ZINC000482846390    0.0900
      3 C3        -10.7120    0.3613   60.8456 C.2     1  ZINC000482846390   -0.2700
      4 C4        -10.9024   -0.8915   61.4375 C.2     1  ZINC000482846390    0.0700
      5 C5        -10.0077   -2.0927   61.2708 C.3     1  ZINC000482846390   -0.0500
      6 C6        -10.2427   -2.7166   59.8938 C.3     1  ZINC000482846390    0.1500
      7 H7        -10.6773   -3.7090   60.0139 H       1  ZINC000482846390    0.1000
      8 C8         -8.9098   -2.8302   59.1512 C.3     1  ZINC000482846390   -0.1700
      9 N9        -11.1597   -1.8717   59.1248 N.am    1  ZINC000482846390   -0.6800
     10 C10       -11.8654   -2.3980   58.1042 C.2     1  ZINC000482846390    0.5100
     11 O11       -11.7423   -3.5720   57.8234 O.2     1  ZINC000482846390   -0.5200
     12 C12       -12.7996   -1.5357   57.3187 C.2     1  ZINC000482846390    0.5100
     13 O13       -13.8132   -1.1122   57.8345 O.2     1  ZINC000482846390   -0.5100
     14 N14       -12.5165   -1.2281   56.0374 N.am    1  ZINC000482846390   -0.5900
     15 C15       -13.4229   -0.3761   55.2549 C.3     1  ZINC000482846390    0.0500
     16 C16       -12.6250    0.8122   54.7041 C.3     1  ZINC000482846390    0.1000
     17 N17       -11.4041    0.3021   54.0646 N.am    1  ZINC000482846390   -0.6000
     18 C18       -11.1205    0.6104   52.7836 C.2     1  ZINC000482846390    0.5200
     19 O19       -11.8764    1.3151   52.1475 O.2     1  ZINC000482846390   -0.5000
     20 C20        -9.8751    0.0844   52.1464 C.2     1  ZINC000482846390    0.5200
     21 O21        -9.8588   -1.0358   51.6800 O.2     1  ZINC000482846390   -0.5000
     22 N22        -8.7702    0.8541   52.0899 N.am    1  ZINC000482846390   -0.6000
     23 C23        -8.7641    2.2131   52.6540 C.3     1  ZINC000482846390    0.0700
     24 C24        -7.5430    2.3507   53.5704 C.3     1  ZINC000482846390    0.0500
     25 O25        -6.3704    1.9551   52.8547 O.3     1  ZINC000482846390   -0.3700
     26 C26        -6.3730    0.5879   52.4370 C.3     1  ZINC000482846390    0.0500
     27 C27        -7.5325    0.3580   51.4676 C.3     1  ZINC000482846390    0.0700
     28 C28       -10.4976   -0.5499   54.8471 C.3     1  ZINC000482846390    0.0900
     29 C29       -11.2927   -1.7336   55.3996 C.3     1  ZINC000482846390    0.0900
     30 N30       -11.9908   -0.8403   62.1616 N.2     1  ZINC000482846390   -0.2800
     31 N31       -12.5255    0.4503   62.0575 N.pl3   1  ZINC000482846390   -0.4700
     32 H32       -11.4105    3.2534   61.5572 H       1  ZINC000482846390    0.0800
     33 H33       -11.5099    2.7690   59.8473 H       1  ZINC000482846390    0.0900
     34 H34       -12.9861    2.8411   60.8392 H       1  ZINC000482846390    0.0700
     35 H35        -9.9000    0.6372   60.1892 H       1  ZINC000482846390    0.1500
     36 H36        -8.9657   -1.7843   61.3570 H       1  ZINC000482846390    0.0900
     37 H37       -10.2350   -2.8252   62.0453 H       1  ZINC000482846390    0.1100
     38 H38        -8.2275   -3.4589   59.7232 H       1  ZINC000482846390    0.0700
     39 H39        -9.0773   -3.2747   58.1701 H       1  ZINC000482846390    0.0700
     40 H40        -8.4752   -1.8379   59.0310 H       1  ZINC000482846390    0.0600
     41 H41       -11.2591   -0.9335   59.3501 H       1  ZINC000482846390    0.4200
     42 H42       -13.8419   -0.9500   54.4283 H       1  ZINC000482846390    0.0800
     43 H43       -14.2265   -0.0119   55.8951 H       1  ZINC000482846390    0.1600
     44 H44       -13.2264    1.3477   53.9693 H       1  ZINC000482846390    0.1100
     45 H45       -12.3575    1.4831   55.5204 H       1  ZINC000482846390    0.0800
     46 H46        -8.7028    2.9447   51.8484 H       1  ZINC000482846390    0.0900
     47 H47        -9.6753    2.3758   53.2297 H       1  ZINC000482846390    0.0900
     48 H48        -7.4422    3.3880   53.8894 H       1  ZINC000482846390    0.1100
     49 H49        -7.6694    1.7111   54.4440 H       1  ZINC000482846390    0.0600
     50 H50        -5.4304    0.3571   51.9406 H       1  ZINC000482846390    0.1100
     51 H51        -6.4951   -0.0582   53.3064 H       1  ZINC000482846390    0.0600
     52 H52        -7.6278   -0.7069   51.2552 H       1  ZINC000482846390    0.1100
     53 H53        -7.3500    0.9026   50.5412 H       1  ZINC000482846390    0.0800
     54 H54        -9.6941   -0.9140   54.2069 H       1  ZINC000482846390    0.0900
     55 H55       -10.0786    0.0241   55.6736 H       1  ZINC000482846390    0.0900
     56 H56       -10.6902   -2.2681   56.1341 H       1  ZINC000482846390    0.1100
     57 H57       -11.5620   -2.4057   54.5849 H       1  ZINC000482846390    0.0800
     58 H58       -13.3318    0.7708   62.4912 H       1  ZINC000482846390    0.4400
@<TRIPOS>BOND
     1     1     2    1
     2     1    32    1
     3     1    33    1
     4     1    34    1
     5     2    31    1
     6     2     3    2
     7     3     4    1
     8     3    35    1
     9     4     5    1
    10     4    30    2
    11     5     6    1
    12     5    36    1
    13     5    37    1
    14     6     7    1
    15     6     8    1
    16     6     9    1
    17     8    38    1
    18     8    39    1
    19     8    40    1
    20     9    10   am
    21     9    41    1
    22    10    11    2
    23    10    12    1
    24    12    13    2
    25    12    14   am
    26    14    29    1
    27    14    15    1
    28    15    16    1
    29    15    42    1
    30    15    43    1
    31    16    17    1
    32    16    44    1
    33    16    45    1
    34    17    18   am
    35    17    28    1
    36    18    19    2
    37    18    20    1
    38    20    21    2
    39    20    22   am
    40    22    27    1
    41    22    23    1
    42    23    24    1
    43    23    46    1
    44    23    47    1
    45    24    25    1
    46    24    48    1
    47    24    49    1
    48    25    26    1
    49    26    27    1
    50    26    50    1
    51    26    51    1
    52    27    52    1
    53    27    53    1
    54    28    29    1
    55    28    54    1
    56    28    55    1
    57    29    56    1
    58    29    57    1
    59    30    31    1
    60    31    58    1
@<TRIPOS>SUBSTRUCTURE
     1 ZINC000482846390        1 TEMP              0 ****  ****    0 ROOT


##########                                Name:    ZINC000277085192
##########                DOCK_Rotatable_Bonds:                   4
##########                         Heavy_Atoms:                  23
##########                    Molecular_Weight:             335.747
##########                DOCK_Rotatable_Bonds:                   4
##########                       Formal_Charge:         5.96046e-08
##########                     HBond_Acceptors:                   8
##########                        HBond_Donors:                   2
##########                         Heavy_Atoms:                  23
##########                          Grid_Score:          -30.976175
##########                     Grid_vdw_energy:          -27.721189
##########                      Grid_es_energy:           -3.254986
##########           Internal_energy_repulsive:            6.051211

@<TRIPOS>MOLECULE
ZINC000277085192
 37 39 1 0 0
SMALL
USER_CHARGES


@<TRIPOS>ATOM
      1 O1        -10.4316   -2.6348   62.0530 O.2     1  ZINC000277085192   -0.5000
      2 C2         -9.7293   -2.0310   61.2697 C.2     1  ZINC000277085192    0.5000
      3 C3         -9.3807   -2.6482   59.9398 C.3     1  ZINC000277085192    0.1100
      4 N4        -10.5546   -2.6165   59.0640 N.am    1  ZINC000277085192   -0.6000
      5 C5        -11.2751   -1.3572   58.8680 C.3     1  ZINC000277085192    0.1100
      6 C6        -11.7806   -1.2763   57.4257 C.3     1  ZINC000277085192   -0.1600
      7 C7        -12.4322   -2.5848   57.0549 C.2     1  ZINC000277085192    0.5200
      8 O8        -13.3864   -2.5966   56.3071 O.2     1  ZINC000277085192   -0.5000
      9 N9        -11.9538   -3.7392   57.5540 N.am    1  ZINC000277085192   -0.6700
     10 C10       -10.9515   -3.7419   58.4479 C.2     1  ZINC000277085192    0.7200
     11 O11       -10.3955   -4.7898   58.7125 O.2     1  ZINC000277085192   -0.5500
     12 N12        -9.2654   -0.8059   61.5864 N.am    1  ZINC000277085192   -0.6700
     13 C13        -9.5893   -0.2325   62.8220 C.ar    1  ZINC000277085192    0.1400
     14 C14        -9.0897   -0.7787   63.9897 C.ar    1  ZINC000277085192   -0.0400
     15 C15        -9.4145   -0.2046   65.2286 C.ar    1  ZINC000277085192   -0.1700
     16 C16       -10.2424    0.9178   65.2680 C.ar    1  ZINC000277085192   -0.0500
     17 C17       -10.7354    1.4552   64.0938 C.ar    1  ZINC000277085192   -0.0900
     18 C18       -10.4095    0.8907   62.8743 C.ar    1  ZINC000277085192   -0.0300
     19 Cl19      -11.0355    1.5756   61.4071 Cl      1  ZINC000277085192   -0.0500
     20 C20       -10.4441    1.3477   66.7016 C.3     1  ZINC000277085192   -0.0800
     21 C21        -9.6439    0.3619   67.5638 C.3     1  ZINC000277085192   -0.1700
     22 C22        -9.0112   -0.5999   66.5878 C.2     1  ZINC000277085192    0.4100
     23 O23        -8.2947   -1.5356   66.8737 O.2     1  ZINC000277085192   -0.4300
     24 H24        -8.5687   -2.0852   59.4796 H       1  ZINC000277085192    0.1300
     25 H25        -9.0671   -3.6813   60.0898 H       1  ZINC000277085192    0.1200
     26 H26       -12.1221   -1.3130   59.5526 H       1  ZINC000277085192    0.0800
     27 H27       -10.6048   -0.5207   59.0654 H       1  ZINC000277085192    0.1000
     28 H28       -12.5085   -0.4696   57.3396 H       1  ZINC000277085192    0.1300
     29 H29       -10.9421   -1.0844   56.7562 H       1  ZINC000277085192    0.1200
     30 H30       -12.3360   -4.5812   57.2611 H       1  ZINC000277085192    0.4300
     31 H31        -8.7070   -0.3215   60.9584 H       1  ZINC000277085192    0.4200
     32 H32        -8.4497   -1.6476   63.9485 H       1  ZINC000277085192    0.1500
     33 H33       -11.3762    2.3239   64.1288 H       1  ZINC000277085192    0.1500
     34 H34       -10.0684    2.3609   66.8449 H       1  ZINC000277085192    0.1000
     35 H35       -11.5015    1.2997   66.9615 H       1  ZINC000277085192    0.1000
     36 H36        -8.8741    0.8906   68.1259 H       1  ZINC000277085192    0.1100
     37 H37       -10.3090   -0.1719   68.2427 H       1  ZINC000277085192    0.1100
@<TRIPOS>BOND
     1     1     2    2
     2     2     3    1
     3     2    12   am
     4     3     4    1
     5     3    24    1
     6     3    25    1
     7     4    10   am
     8     4     5    1
     9     5     6    1
    10     5    26    1
    11     5    27    1
    12     6     7    1
    13     6    28    1
    14     6    29    1
    15     7     8    2
    16     7     9   am
    17     9    10   am
    18     9    30    1
    19    10    11    2
    20    12    13    1
    21    12    31    1
    22    13    18   ar
    23    13    14   ar
    24    14    15   ar
    25    14    32    1
    26    15    22    1
    27    15    16   ar
    28    16    17   ar
    29    16    20    1
    30    17    18   ar
    31    17    33    1
    32    18    19    1
    33    20    21    1
    34    20    34    1
    35    20    35    1
    36    21    22    1
    37    21    36    1
    38    21    37    1
    39    22    23    2
@<TRIPOS>SUBSTRUCTURE
     1 ZINC000277085192        1 TEMP              0 ****  ****    0 ROOT


##########                                Name:    ZINC000981700465
##########                DOCK_Rotatable_Bonds:                   9
##########                         Heavy_Atoms:                  26
##########                    Molecular_Weight:             356.428
##########                DOCK_Rotatable_Bonds:                   9
##########                       Formal_Charge:               -0.01
##########                     HBond_Acceptors:                   8
##########                        HBond_Donors:                   3
##########                         Heavy_Atoms:                  26
##########                          Grid_Score:          -30.972490
##########                     Grid_vdw_energy:          -30.062357
##########                      Grid_es_energy:           -0.910133
##########           Internal_energy_repulsive:           14.386531

@<TRIPOS>MOLECULE
ZINC000981700465
 50 52 1 0 0
SMALL
USER_CHARGES


@<TRIPOS>ATOM
      1 C1         -6.1374   -0.3309   52.0903 C.3     1  ZINC000981700465   -0.1500
      2 C2         -7.6574   -0.2649   51.9276 C.3     1  ZINC000981700465   -0.1100
      3 C3         -8.1513    1.1311   52.3125 C.3     1  ZINC000981700465   -0.0500
      4 C4         -7.9422    1.3485   53.7889 C.2     1  ZINC000981700465    0.1400
      5 N5         -6.9475    1.9912   54.3359 N.2     1  ZINC000981700465   -0.2900
      6 N6         -7.1081    1.9769   55.7258 N.pl3   1  ZINC000981700465   -0.4600
      7 C7         -8.2333    1.3051   56.0176 C.2     1  ZINC000981700465    0.1000
      8 C8         -8.7926    0.8974   54.8233 C.2     1  ZINC000981700465   -0.2900
      9 C9        -10.0385    0.1266   54.6582 C.2     1  ZINC000981700465    0.5900
     10 O10       -10.3460   -0.3049   53.5638 O.2     1  ZINC000981700465   -0.5300
     11 N11       -10.8365   -0.0997   55.7205 N.am    1  ZINC000981700465   -0.7300
     12 C12       -12.0754   -0.8641   55.5561 C.3     1  ZINC000981700465    0.1300
     13 C13       -11.8771   -2.2801   56.1007 C.3     1  ZINC000981700465   -0.1100
     14 H14       -11.2920   -2.8779   55.4019 H       1  ZINC000981700465    0.0900
     15 C15       -11.1870   -2.2361   57.4867 C.3     1  ZINC000981700465   -0.1200
     16 C16       -11.6101   -3.5839   58.1219 C.3     1  ZINC000981700465   -0.1300
     17 C17       -13.0700   -3.7769   57.6627 C.3     1  ZINC000981700465    0.1400
     18 H18       -13.2602   -4.8300   57.4556 H       1  ZINC000981700465    0.1000
     19 N19       -13.9892   -3.2952   58.6968 N.am    1  ZINC000981700465   -0.7100
     20 C20       -15.2746   -3.7005   58.6977 C.2     1  ZINC000981700465    0.5600
     21 O21       -15.6715   -4.4641   57.8398 O.2     1  ZINC000981700465   -0.5200
     22 C22       -16.2036   -3.2149   59.7444 C.ar    1  ZINC000981700465   -0.1400
     23 C23       -17.5873   -3.1861   59.5283 C.ar    1  ZINC000981700465   -0.0600
     24 C24       -18.3924   -2.7191   60.5546 C.ar    1  ZINC000981700465    0.0400
     25 N25       -17.8495   -2.3204   61.6884 N.ar    1  ZINC000981700465   -0.2200
     26 N26       -16.5833   -2.3442   61.8927 N.ar    1  ZINC000981700465   -0.2400
     27 C27       -15.7302   -2.7750   60.9837 C.ar    1  ZINC000981700465    0.0700
     28 C28       -13.2399   -2.9492   56.3742 C.3     1  ZINC000981700465   -0.1200
     29 H29        -5.8738   -0.1254   53.1278 H       1  ZINC000981700465    0.0600
     30 H30        -5.7856   -1.3254   51.8160 H       1  ZINC000981700465    0.0600
     31 H31        -5.6702    0.4111   51.4429 H       1  ZINC000981700465    0.0500
     32 H32        -7.9210   -0.4703   50.8900 H       1  ZINC000981700465    0.0600
     33 H33        -8.1247   -1.0070   52.5750 H       1  ZINC000981700465    0.0600
     34 H34        -7.5934    1.8813   51.7521 H       1  ZINC000981700465    0.1000
     35 H35        -9.2125    1.2181   52.0792 H       1  ZINC000981700465    0.0800
     36 H36        -6.5077    2.3838   56.3700 H       1  ZINC000981700465    0.4500
     37 H37        -8.6302    1.1213   57.0050 H       1  ZINC000981700465    0.1800
     38 H38       -10.5906    0.2435   56.5937 H       1  ZINC000981700465    0.4000
     39 H39       -12.8803   -0.3737   56.1037 H       1  ZINC000981700465    0.0700
     40 H40       -12.3338   -0.9144   54.4984 H       1  ZINC000981700465    0.0700
     41 H41       -10.1038   -2.1837   57.3773 H       1  ZINC000981700465    0.0700
     42 H42       -11.5578   -1.3978   58.0764 H       1  ZINC000981700465    0.0700
     43 H43       -10.9829   -4.3943   57.7503 H       1  ZINC000981700465    0.0800
     44 H44       -11.5565   -3.5266   59.2091 H       1  ZINC000981700465    0.0700
     45 H45       -13.6727   -2.6848   59.3810 H       1  ZINC000981700465    0.4000
     46 H46       -18.0126   -3.5168   58.5922 H       1  ZINC000981700465    0.1700
     47 H47       -19.4641   -2.6814   60.4261 H       1  ZINC000981700465    0.1800
     48 H48       -14.6707   -2.7802   61.1928 H       1  ZINC000981700465    0.1700
     49 H49       -14.0059   -2.1872   56.5182 H       1  ZINC000981700465    0.0800
     50 H50       -13.5128   -3.6015   55.5447 H       1  ZINC000981700465    0.0800
@<TRIPOS>BOND
     1     1     2    1
     2     1    29    1
     3     1    30    1
     4     1    31    1
     5     2     3    1
     6     2    32    1
     7     2    33    1
     8     3     4    1
     9     3    34    1
    10     3    35    1
    11     4     8    1
    12     4     5    2
    13     5     6    1
    14     6     7    1
    15     6    36    1
    16     7     8    2
    17     7    37    1
    18     8     9    1
    19     9    10    2
    20     9    11   am
    21    11    12    1
    22    11    38    1
    23    12    13    1
    24    12    39    1
    25    12    40    1
    26    13    14    1
    27    13    28    1
    28    13    15    1
    29    15    16    1
    30    15    41    1
    31    15    42    1
    32    16    17    1
    33    16    43    1
    34    16    44    1
    35    17    18    1
    36    17    19    1
    37    17    28    1
    38    19    20   am
    39    19    45    1
    40    20    21    2
    41    20    22    1
    42    22    27   ar
    43    22    23   ar
    44    23    24   ar
    45    23    46    1
    46    24    25   ar
    47    24    47    1
    48    25    26   ar
    49    26    27   ar
    50    27    48    1
    51    28    49    1
    52    28    50    1
@<TRIPOS>SUBSTRUCTURE
     1 ZINC000981700465        1 TEMP              0 ****  ****    0 ROOT


##########                                Name:    ZINC000195331548
##########                DOCK_Rotatable_Bonds:                   7
##########                         Heavy_Atoms:                  26
##########                    Molecular_Weight:             378.539
##########                DOCK_Rotatable_Bonds:                   7
##########                       Formal_Charge:          -0.0100004
##########                     HBond_Acceptors:                   7
##########                        HBond_Donors:                   2
##########                         Heavy_Atoms:                  26
##########                          Grid_Score:          -30.970173
##########                     Grid_vdw_energy:          -30.286036
##########                      Grid_es_energy:           -0.684138
##########           Internal_energy_repulsive:           24.686226

@<TRIPOS>MOLECULE
ZINC000195331548
 56 58 1 0 0
SMALL
USER_CHARGES


@<TRIPOS>ATOM
      1 C1        -14.3158   -6.2661   56.5367 C.3     1  ZINC000195331548   -0.0800
      2 C2        -13.8091   -4.8473   56.5028 C.2     1  ZINC000195331548    0.0700
      3 C3        -14.3969   -3.8866   55.7832 C.2     1  ZINC000195331548   -0.2600
      4 S4        -13.4950   -2.3937   56.0325 S.3     1  ZINC000195331548    0.1100
      5 C5        -12.4123   -3.2115   57.0729 C.2     1  ZINC000195331548    0.0600
      6 C6        -11.2371   -2.5741   57.7685 C.3     1  ZINC000195331548   -0.0100
      7 H7        -10.3575   -2.6347   57.1275 H       1  ZINC000195331548    0.1100
      8 C8        -10.9625   -3.3076   59.0842 C.3     1  ZINC000195331548   -0.1200
      9 C9         -9.8063   -2.6170   59.8127 C.3     1  ZINC000195331548   -0.1100
     10 C10       -10.1639   -1.1481   60.0497 C.3     1  ZINC000195331548    0.0500
     11 N11       -10.4166   -0.4905   58.7612 N.3     1  ZINC000195331548   -0.5200
     12 C12       -10.6274    0.9525   58.9390 C.3     1  ZINC000195331548    0.0400
     13 C13       -10.5427    1.6410   57.6012 C.2     1  ZINC000195331548    0.5100
     14 O14       -11.3384    2.5099   57.3152 O.2     1  ZINC000195331548   -0.4400
     15 N15        -9.5825    1.2908   56.7226 N.am    1  ZINC000195331548   -0.7000
     16 C16        -9.5077    1.9054   55.5256 C.2     1  ZINC000195331548    0.6900
     17 O17       -10.3072    2.7745   55.2376 O.2     1  ZINC000195331548   -0.5300
     18 N18        -8.5466    1.5564   54.6476 N.am    1  ZINC000195331548   -0.7300
     19 C19        -8.4643    2.2258   53.3471 C.3     1  ZINC000195331548    0.1700
     20 H20        -8.8351    3.2465   53.4397 H       1  ZINC000195331548    0.0900
     21 C21        -9.3140    1.4649   52.3273 C.3     1  ZINC000195331548   -0.1300
     22 C22        -8.7935    0.0321   52.1973 C.3     1  ZINC000195331548   -0.1200
     23 C23        -7.3372    0.0591   51.7289 C.3     1  ZINC000195331548   -0.1200
     24 C24        -6.4874    0.8199   52.7486 C.3     1  ZINC000195331548   -0.1100
     25 C25        -7.0080    2.2527   52.8786 C.3     1  ZINC000195331548   -0.1000
     26 H26        -6.9467    2.7507   51.9110 H       1  ZINC000195331548    0.0900
     27 C27        -6.1582    3.0135   53.8985 C.3     1  ZINC000195331548   -0.1500
     28 C28       -11.5532   -1.1063   58.0647 C.3     1  ZINC000195331548    0.0600
     29 N29       -12.7503   -4.4520   57.1805 N.2     1  ZINC000195331548   -0.4700
     30 H30       -15.0379   -6.3748   57.3459 H       1  ZINC000195331548    0.0800
     31 H31       -14.7957   -6.5033   55.5872 H       1  ZINC000195331548    0.0800
     32 H32       -13.4803   -6.9465   56.7015 H       1  ZINC000195331548    0.0800
     33 H33       -15.2723   -4.0039   55.1618 H       1  ZINC000195331548    0.1800
     34 H34       -11.8549   -3.2807   59.7094 H       1  ZINC000195331548    0.0600
     35 H35       -10.6955   -4.3435   58.8748 H       1  ZINC000195331548    0.0700
     36 H36        -9.6340   -3.1087   60.7701 H       1  ZINC000195331548    0.0800
     37 H37        -8.9041   -2.6783   59.2040 H       1  ZINC000195331548    0.0800
     38 H38        -9.3368   -0.6499   60.5555 H       1  ZINC000195331548    0.0800
     39 H39       -11.0582   -1.0875   60.6699 H       1  ZINC000195331548    0.0400
     40 H40        -9.8608    1.3525   59.6027 H       1  ZINC000195331548    0.1200
     41 H41       -11.6114    1.1250   59.3748 H       1  ZINC000195331548    0.0700
     42 H42        -8.9453    0.5964   56.9520 H       1  ZINC000195331548    0.4100
     43 H43        -7.9092    0.8620   54.8769 H       1  ZINC000195331548    0.4000
     44 H44        -9.2527    1.9630   51.3596 H       1  ZINC000195331548    0.0700
     45 H45       -10.3515    1.4458   52.6609 H       1  ZINC000195331548    0.0700
     46 H46        -9.3989   -0.5099   51.4707 H       1  ZINC000195331548    0.0600
     47 H47        -8.8547   -0.4659   53.1649 H       1  ZINC000195331548    0.0600
     48 H48        -6.9664   -0.9617   51.6363 H       1  ZINC000195331548    0.0600
     49 H49        -7.2760    0.5571   50.7612 H       1  ZINC000195331548    0.0600
     50 H50        -6.5487    0.3218   53.7163 H       1  ZINC000195331548    0.0600
     51 H51        -5.4499    0.8391   52.4150 H       1  ZINC000195331548    0.0700
     52 H52        -6.2195    2.5155   54.8661 H       1  ZINC000195331548    0.0500
     53 H53        -5.1207    3.0327   53.5647 H       1  ZINC000195331548    0.0600
     54 H54        -6.5291    4.0343   53.9911 H       1  ZINC000195331548    0.0600
     55 H55       -12.4410   -1.0460   58.6943 H       1  ZINC000195331548    0.0400
     56 H56       -11.7352   -0.5780   57.1288 H       1  ZINC000195331548    0.0900
@<TRIPOS>BOND
     1     1     2    1
     2     1    30    1
     3     1    31    1
     4     1    32    1
     5     2    29    1
     6     2     3    2
     7     3     4    1
     8     3    33    1
     9     4     5    1
    10     5     6    1
    11     5    29    2
    12     6     7    1
    13     6    28    1
    14     6     8    1
    15     8     9    1
    16     8    34    1
    17     8    35    1
    18     9    10    1
    19     9    36    1
    20     9    37    1
    21    10    11    1
    22    10    38    1
    23    10    39    1
    24    11    12    1
    25    11    28    1
    26    12    13    1
    27    12    40    1
    28    12    41    1
    29    13    14    2
    30    13    15   am
    31    15    16   am
    32    15    42    1
    33    16    17    2
    34    16    18   am
    35    18    19    1
    36    18    43    1
    37    19    20    1
    38    19    25    1
    39    19    21    1
    40    21    22    1
    41    21    44    1
    42    21    45    1
    43    22    23    1
    44    22    46    1
    45    22    47    1
    46    23    24    1
    47    23    48    1
    48    23    49    1
    49    24    25    1
    50    24    50    1
    51    24    51    1
    52    25    26    1
    53    25    27    1
    54    27    52    1
    55    27    53    1
    56    27    54    1
    57    28    55    1
    58    28    56    1
@<TRIPOS>SUBSTRUCTURE
     1 ZINC000195331548        1 TEMP              0 ****  ****    0 ROOT


##########                                Name:    ZINC000369046711
##########                DOCK_Rotatable_Bonds:                   8
##########                         Heavy_Atoms:                  26
##########                    Molecular_Weight:             367.467
##########                DOCK_Rotatable_Bonds:                   8
##########                       Formal_Charge:        -7.63685e-07
##########                     HBond_Acceptors:                   8
##########                        HBond_Donors:                   1
##########                         Heavy_Atoms:                  26
##########                          Grid_Score:          -30.953709
##########                     Grid_vdw_energy:          -28.575994
##########                      Grid_es_energy:           -2.377715
##########           Internal_energy_repulsive:           15.895163

@<TRIPOS>MOLECULE
ZINC000369046711
 56 58 1 0 0
SMALL
USER_CHARGES


@<TRIPOS>ATOM
      1 C1        -14.8413   -4.8897   55.1191 C.3     1  ZINC000369046711   -0.1800
      2 C2        -14.9378   -3.5550   55.8608 C.3     1  ZINC000369046711    0.1400
      3 C3        -16.1723   -2.7911   55.3777 C.3     1  ZINC000369046711   -0.1800
      4 C4        -15.0545   -3.8142   57.3641 C.3     1  ZINC000369046711   -0.1400
      5 O5        -13.7470   -2.7672   55.5965 O.3     1  ZINC000369046711   -0.3700
      6 C6        -13.4231   -1.8260   56.5032 C.2     1  ZINC000369046711    0.6500
      7 O7        -14.0934   -0.8169   56.5974 O.2     1  ZINC000369046711   -0.5700
      8 N8        -12.3553   -2.0032   57.3062 N.am    1  ZINC000369046711   -0.7100
      9 C9        -12.0038   -0.9798   58.2940 C.3     1  ZINC000369046711    0.1800
     10 H10       -12.8063   -0.2439   58.3437 H       1  ZINC000369046711    0.0900
     11 C11       -10.7161   -0.2842   57.8542 C.3     1  ZINC000369046711   -0.1300
     12 C12        -9.6001   -1.3344   57.8051 C.3     1  ZINC000369046711   -0.1200
     13 C13        -9.3693   -1.8589   59.2194 C.3     1  ZINC000369046711   -0.1200
     14 C14       -10.6223   -2.5508   59.7601 C.3     1  ZINC000369046711   -0.1000
     15 H15       -10.7816   -3.5263   59.3008 H       1  ZINC000369046711    0.0900
     16 C16       -10.4420   -2.6457   61.3000 C.3     1  ZINC000369046711    0.0400
     17 N17       -11.0544   -1.4344   61.8799 N.3     1  ZINC000369046711   -0.5200
     18 C18       -10.0702   -0.6657   62.6535 C.3     1  ZINC000369046711    0.1200
     19 C19       -10.7589    0.0125   63.8096 C.2     1  ZINC000369046711    0.2900
     20 N20       -12.0398    0.2633   63.9010 N.2     1  ZINC000369046711   -0.5400
     21 C21       -12.2996    0.8725   65.0571 C.2     1  ZINC000369046711    0.2000
     22 N22       -11.1829    1.0184   65.7204 N.2     1  ZINC000369046711   -0.3200
     23 N23       -10.1654    0.4601   64.9297 N.pl3   1  ZINC000369046711   -0.3700
     24 C24        -8.7390    0.3884   65.2562 C.3     1  ZINC000369046711    0.1000
     25 C25        -8.5478   -0.4415   66.5272 C.3     1  ZINC000369046711    0.0500
     26 F26        -8.9079   -1.7698   66.2755 F       1  ZINC000369046711   -0.2000
     27 C27       -11.6197   -0.6183   60.7791 C.3     1  ZINC000369046711    0.0500
     28 C28       -11.8508   -1.6322   59.6443 C.3     1  ZINC000369046711   -0.1000
     29 H29       -12.7502   -2.2100   59.8575 H       1  ZINC000369046711    0.0900
     30 H30       -14.7581   -4.7049   54.0481 H       1  ZINC000369046711    0.0900
     31 H31       -13.9619   -5.4338   55.4633 H       1  ZINC000369046711    0.0600
     32 H32       -15.7352   -5.4810   55.3175 H       1  ZINC000369046711    0.0700
     33 H33       -17.0661   -3.3824   55.5761 H       1  ZINC000369046711    0.0700
     34 H34       -16.2410   -1.8401   55.9062 H       1  ZINC000369046711    0.0600
     35 H35       -16.0891   -2.6063   54.3067 H       1  ZINC000369046711    0.0900
     36 H36       -14.1750   -4.3585   57.7084 H       1  ZINC000369046711    0.0700
     37 H37       -15.1232   -2.8633   57.8926 H       1  ZINC000369046711    0.0700
     38 H38       -15.9483   -4.4055   57.5626 H       1  ZINC000369046711    0.0800
     39 H39       -11.8195   -2.8081   57.2302 H       1  ZINC000369046711    0.4000
     40 H40       -10.8534    0.1535   56.8654 H       1  ZINC000369046711    0.0700
     41 H41       -10.4563    0.4959   58.5697 H       1  ZINC000369046711    0.0800
     42 H42        -9.8974   -2.1557   57.1531 H       1  ZINC000369046711    0.0600
     43 H43        -8.6841   -0.8792   57.4284 H       1  ZINC000369046711    0.0700
     44 H44        -8.5444   -2.5713   59.2067 H       1  ZINC000369046711    0.0700
     45 H45        -9.1110   -1.0252   59.8724 H       1  ZINC000369046711    0.0600
     46 H46       -10.9448   -3.5352   61.6796 H       1  ZINC000369046711    0.0800
     47 H47        -9.3814   -2.6824   61.5491 H       1  ZINC000369046711    0.0800
     48 H48        -9.3007   -1.3381   63.0327 H       1  ZINC000369046711    0.0800
     49 H49        -9.6114    0.0866   62.0120 H       1  ZINC000369046711    0.1000
     50 H50       -13.2749    1.1942   65.3917 H       1  ZINC000369046711    0.2200
     51 H51        -8.2007   -0.0799   64.4321 H       1  ZINC000369046711    0.1200
     52 H52        -8.3522    1.3945   65.4176 H       1  ZINC000369046711    0.1100
     53 H53        -7.5028   -0.4004   66.8342 H       1  ZINC000369046711    0.0900
     54 H54        -9.1761   -0.0391   67.3218 H       1  ZINC000369046711    0.0800
     55 H55       -12.5621   -0.1643   61.0853 H       1  ZINC000369046711    0.0900
     56 H56       -10.9092    0.1473   60.4674 H       1  ZINC000369046711    0.0600
@<TRIPOS>BOND
     1     1     2    1
     2     1    30    1
     3     1    31    1
     4     1    32    1
     5     2     3    1
     6     2     4    1
     7     2     5    1
     8     3    33    1
     9     3    34    1
    10     3    35    1
    11     4    36    1
    12     4    37    1
    13     4    38    1
    14     5     6    1
    15     6     7    2
    16     6     8   am
    17     8     9    1
    18     8    39    1
    19     9    10    1
    20     9    28    1
    21     9    11    1
    22    11    12    1
    23    11    40    1
    24    11    41    1
    25    12    13    1
    26    12    42    1
    27    12    43    1
    28    13    14    1
    29    13    44    1
    30    13    45    1
    31    14    15    1
    32    14    28    1
    33    14    16    1
    34    16    17    1
    35    16    46    1
    36    16    47    1
    37    17    18    1
    38    17    27    1
    39    18    19    1
    40    18    48    1
    41    18    49    1
    42    19    23    1
    43    19    20    2
    44    20    21    1
    45    21    22    2
    46    21    50    1
    47    22    23    1
    48    23    24    1
    49    24    25    1
    50    24    51    1
    51    24    52    1
    52    25    26    1
    53    25    53    1
    54    25    54    1
    55    27    28    1
    56    27    55    1
    57    27    56    1
    58    28    29    1
@<TRIPOS>SUBSTRUCTURE
     1 ZINC000369046711        1 TEMP              0 ****  ****    0 ROOT


##########                                Name:    ZINC000562561773
##########                DOCK_Rotatable_Bonds:                   6
##########                         Heavy_Atoms:                  26
##########                    Molecular_Weight:             371.466
##########                DOCK_Rotatable_Bonds:                   6
##########                       Formal_Charge:           0.0199999
##########                     HBond_Acceptors:                   9
##########                        HBond_Donors:                   0
##########                         Heavy_Atoms:                  26
##########                          Grid_Score:          -30.952715
##########                     Grid_vdw_energy:          -30.644697
##########                      Grid_es_energy:           -0.308019
##########           Internal_energy_repulsive:            9.561835

@<TRIPOS>MOLECULE
ZINC000562561773
 47 50 1 0 0
SMALL
USER_CHARGES


@<TRIPOS>ATOM
      1 C1        -11.7834   -2.8123   60.6686 C.3     1  ZINC000562561773   -0.1100
      2 C2        -11.1744   -1.5856   60.0397 C.ar    1  ZINC000562561773   -0.0400
      3 C3        -11.2185   -1.4199   58.6688 C.ar    1  ZINC000562561773   -0.1200
      4 C4        -10.6623   -0.2981   58.0864 C.ar    1  ZINC000562561773   -0.0700
      5 C5        -10.0541    0.6713   58.8813 C.ar    1  ZINC000562561773   -0.0300
      6 C6         -9.4563    1.8778   58.2566 C.2     1  ZINC000562561773    0.2200
      7 N7         -9.6698    3.1195   58.6062 N.2     1  ZINC000562561773   -0.3700
      8 O8         -9.0307    3.8679   57.8974 O.3     1  ZINC000562561773    0.0900
      9 C9         -8.3289    3.1640   57.0036 C.2     1  ZINC000562561773    0.1900
     10 C10        -7.4105    3.7215   55.9470 C.3     1  ZINC000562561773   -0.0100
     11 C11        -7.0413    2.6152   54.9568 C.3     1  ZINC000562561773   -0.1200
     12 S12        -8.4552    2.2728   53.8798 S.3     1  ZINC000562561773    0.0600
     13 C13        -7.8035    0.9360   52.9350 C.2     1  ZINC000562561773    0.2100
     14 N14        -6.5426    0.5669   52.8693 N.2     1  ZINC000562561773   -0.3300
     15 N15        -6.4101   -0.4446   52.0893 N.2     1  ZINC000562561773   -0.0300
     16 N16        -7.5542   -0.7915   51.6070 N.2     1  ZINC000562561773   -0.0700
     17 N17        -8.5071    0.0915   52.1443 N.pl3   1  ZINC000562561773   -0.3600
     18 C18        -9.9507    0.1015   51.8950 C.3     1  ZINC000562561773    0.0800
     19 N19        -8.5844    1.8983   57.2232 N.2     1  ZINC000562561773   -0.4600
     20 C20       -10.0089    0.5057   60.2629 C.ar    1  ZINC000562561773   -0.1100
     21 C21       -10.5748   -0.6209   60.8410 C.ar    1  ZINC000562561773    0.0800
     22 N22       -10.5324   -0.7914   62.2268 N.3     1  ZINC000562561773   -0.4800
     23 C23        -9.1304   -0.8292   62.7158 C.3     1  ZINC000562561773    0.0400
     24 C24        -9.2707   -0.4906   64.2212 C.3     1  ZINC000562561773   -0.1200
     25 C25       -10.3971    0.5682   64.2339 C.3     1  ZINC000562561773   -0.1300
     26 C26       -11.1709    0.3479   62.9208 C.3     1  ZINC000562561773    0.0400
     27 H27       -12.8298   -2.6185   60.9041 H       1  ZINC000562561773    0.0700
     28 H28       -11.7165   -3.6486   59.9727 H       1  ZINC000562561773    0.0600
     29 H29       -11.2443   -3.0571   61.5838 H       1  ZINC000562561773    0.0800
     30 H30       -11.6892   -2.1703   58.0507 H       1  ZINC000562561773    0.1400
     31 H31       -10.6985   -0.1724   57.0143 H       1  ZINC000562561773    0.1400
     32 H32        -7.9144    4.5300   55.4173 H       1  ZINC000562561773    0.1200
     33 H33        -6.5051    4.1046   56.4179 H       1  ZINC000562561773    0.1300
     34 H34        -6.1935    2.9368   54.3520 H       1  ZINC000562561773    0.1100
     35 H35        -6.7747    1.7113   55.5046 H       1  ZINC000562561773    0.1100
     36 H36       -10.4502   -0.5327   52.6274 H       1  ZINC000562561773    0.1000
     37 H37       -10.3271    1.1209   51.9803 H       1  ZINC000562561773    0.1000
     38 H38       -10.1488   -0.2763   50.8920 H       1  ZINC000562561773    0.1100
     39 H39        -9.5383    1.2543   60.8830 H       1  ZINC000562561773    0.1300
     40 H40        -8.7033   -1.8233   62.5833 H       1  ZINC000562561773    0.0900
     41 H41        -8.5252   -0.0785   62.2075 H       1  ZINC000562561773    0.0500
     42 H42        -9.5646   -1.3732   64.7893 H       1  ZINC000562561773    0.0800
     43 H43        -8.3428   -0.0715   64.6105 H       1  ZINC000562561773    0.0700
     44 H44       -11.0531    0.4125   65.0903 H       1  ZINC000562561773    0.0800
     45 H45        -9.9725    1.5719   64.2590 H       1  ZINC000562561773    0.0700
     46 H46       -11.1107    1.2418   62.2999 H       1  ZINC000562561773    0.0500
     47 H47       -12.2128    0.1133   63.1387 H       1  ZINC000562561773    0.0800
@<TRIPOS>BOND
     1     1     2    1
     2     1    27    1
     3     1    28    1
     4     1    29    1
     5     2    21   ar
     6     2     3   ar
     7     3     4   ar
     8     3    30    1
     9     4     5   ar
    10     4    31    1
    11     5     6    1
    12     5    20   ar
    13     6    19    1
    14     6     7    2
    15     7     8    1
    16     8     9    1
    17     9    10    1
    18     9    19    2
    19    10    11    1
    20    10    32    1
    21    10    33    1
    22    11    12    1
    23    11    34    1
    24    11    35    1
    25    12    13    1
    26    13    17    1
    27    13    14    2
    28    14    15    1
    29    15    16    2
    30    16    17    1
    31    17    18    1
    32    18    36    1
    33    18    37    1
    34    18    38    1
    35    20    21   ar
    36    20    39    1
    37    21    22    1
    38    22    26    1
    39    22    23    1
    40    23    24    1
    41    23    40    1
    42    23    41    1
    43    24    25    1
    44    24    42    1
    45    24    43    1
    46    25    26    1
    47    25    44    1
    48    25    45    1
    49    26    46    1
    50    26    47    1
@<TRIPOS>SUBSTRUCTURE
     1 ZINC000562561773        1 TEMP              0 ****  ****    0 ROOT


##########                                Name:    ZINC001342629575
##########                DOCK_Rotatable_Bonds:                   9
##########                         Heavy_Atoms:                  29
##########                    Molecular_Weight:             396.533
##########                DOCK_Rotatable_Bonds:                   9
##########                       Formal_Charge:         -0.00999976
##########                     HBond_Acceptors:                   6
##########                        HBond_Donors:                   0
##########                         Heavy_Atoms:                  29
##########                          Grid_Score:          -30.948034
##########                     Grid_vdw_energy:          -29.478437
##########                      Grid_es_energy:           -1.469596
##########           Internal_energy_repulsive:           19.391184

@<TRIPOS>MOLECULE
ZINC001342629575
 61 64 1 0 0
SMALL
USER_CHARGES


@<TRIPOS>ATOM
      1 C1        -12.1460    1.5591   50.3061 C.2     1  ZINC001342629575   -0.1800
      2 C2        -11.6117    1.7350   51.4892 C.2     1  ZINC001342629575   -0.1600
      3 C3        -11.3882    0.5542   52.3983 C.3     1  ZINC001342629575   -0.0800
      4 C4        -10.3950    0.9373   53.4971 C.3     1  ZINC001342629575    0.0500
      5 H5        -10.6207    1.9412   53.8570 H       1  ZINC001342629575    0.0900
      6 C6        -10.5050   -0.0417   54.6375 C.2     1  ZINC001342629575    0.2000
      7 N7        -10.7372   -1.3199   54.5381 N.2     1  ZINC001342629575   -0.2700
      8 N8        -10.7669   -1.8546   55.7066 N.2     1  ZINC001342629575   -0.3000
      9 C9        -10.5535   -0.9386   56.6215 C.2     1  ZINC001342629575    0.3400
     10 N10       -10.5125   -1.1375   57.9924 N.3     1  ZINC001342629575   -0.4300
     11 C11        -9.3590   -1.9933   58.3718 C.3     1  ZINC001342629575    0.0400
     12 C12        -9.7337   -2.5586   59.7587 C.3     1  ZINC001342629575   -0.1200
     13 C13       -11.2741   -2.4970   59.8139 C.3     1  ZINC001342629575   -0.1200
     14 C14       -11.7006   -1.8997   58.4557 C.3     1  ZINC001342629575    0.0700
     15 H15       -11.9413   -2.6944   57.7496 H       1  ZINC001342629575    0.0900
     16 C16       -12.8993   -0.9662   58.6361 C.3     1  ZINC001342629575    0.1000
     17 H17       -12.5790   -0.0419   59.1169 H       1  ZINC001342629575    0.0700
     18 C18       -13.9772   -1.6585   59.4974 C.3     1  ZINC001342629575   -0.1400
     19 C19       -15.2919   -1.2137   58.8005 C.3     1  ZINC001342629575   -0.1600
     20 C20       -14.8365   -1.1596   57.3204 C.3     1  ZINC001342629575    0.0500
     21 O21       -13.4834   -0.6735   57.3613 O.3     1  ZINC001342629575   -0.3700
     22 N22       -10.3739    0.2456   55.9679 N.pl3   1  ZINC001342629575   -0.4600
     23 C23       -10.1060    1.5551   56.5676 C.3     1  ZINC001342629575    0.1100
     24 C24        -8.8657    1.4637   57.4589 C.3     1  ZINC001342629575    0.0500
     25 O25        -7.7470    1.0411   56.6766 O.3     1  ZINC001342629575   -0.3800
     26 C26        -6.9327    2.1142   56.1998 C.3     1  ZINC001342629575    0.0300
     27 C27        -8.9945    0.9060   52.9416 C.ar    1  ZINC001342629575   -0.0900
     28 C28        -8.2378    2.0625   52.9089 C.ar    1  ZINC001342629575   -0.0900
     29 C29        -6.9531    2.0338   52.3994 C.ar    1  ZINC001342629575   -0.1200
     30 C30        -6.4248    0.8486   51.9229 C.ar    1  ZINC001342629575   -0.1200
     31 C31        -7.1811   -0.3081   51.9564 C.ar    1  ZINC001342629575   -0.1200
     32 C32        -8.4642   -0.2803   52.4700 C.ar    1  ZINC001342629575   -0.1100
     33 H33       -12.3063    2.4054   49.6546 H       1  ZINC001342629575    0.1000
     34 H34       -12.4222    0.5671   49.9804 H       1  ZINC001342629575    0.1000
     35 H35       -11.3315    2.7265   51.8131 H       1  ZINC001342629575    0.1000
     36 H36       -12.3351    0.2598   52.8509 H       1  ZINC001342629575    0.0900
     37 H37       -10.9873   -0.2785   51.8204 H       1  ZINC001342629575    0.0800
     38 H38        -9.2334   -2.8027   57.6527 H       1  ZINC001342629575    0.0600
     39 H39        -8.4488   -1.3973   58.4375 H       1  ZINC001342629575    0.0800
     40 H40        -9.3925   -3.5896   59.8521 H       1  ZINC001342629575    0.0800
     41 H41        -9.3018   -1.9432   60.5477 H       1  ZINC001342629575    0.0800
     42 H42       -11.6890   -3.4977   59.9343 H       1  ZINC001342629575    0.0800
     43 H43       -11.5981   -1.8513   60.6300 H       1  ZINC001342629575    0.0800
     44 H44       -13.8662   -2.7422   59.4607 H       1  ZINC001342629575    0.0900
     45 H45       -13.9423   -1.2985   60.5257 H       1  ZINC001342629575    0.0800
     46 H46       -16.0810   -1.9523   58.9419 H       1  ZINC001342629575    0.0800
     47 H47       -15.6090   -0.2311   59.1501 H       1  ZINC001342629575    0.0800
     48 H48       -14.8683   -2.1553   56.8782 H       1  ZINC001342629575    0.0600
     49 H49       -15.4671   -0.4733   56.7553 H       1  ZINC001342629575    0.0900
     50 H50        -9.9336    2.2875   55.7790 H       1  ZINC001342629575    0.1000
     51 H51       -10.9627    1.8621   57.1676 H       1  ZINC001342629575    0.1100
     52 H52        -8.6571    2.4418   57.8925 H       1  ZINC001342629575    0.0600
     53 H53        -9.0440    0.7430   58.2569 H       1  ZINC001342629575    0.0600
     54 H54        -6.1056    1.7108   55.6155 H       1  ZINC001342629575    0.0900
     55 H55        -7.5320    2.7748   55.5734 H       1  ZINC001342629575    0.0400
     56 H56        -6.5388    2.6756   57.0471 H       1  ZINC001342629575    0.0400
     57 H57        -8.6505    2.9885   53.2811 H       1  ZINC001342629575    0.1300
     58 H58        -6.3623    2.9375   52.3732 H       1  ZINC001342629575    0.1200
     59 H59        -5.4215    0.8263   51.5242 H       1  ZINC001342629575    0.1200
     60 H60        -6.7685   -1.2340   51.5839 H       1  ZINC001342629575    0.1200
     61 H61        -9.0551   -1.1840   52.4962 H       1  ZINC001342629575    0.1200
@<TRIPOS>BOND
     1     1     2    2
     2     1    33    1
     3     1    34    1
     4     2     3    1
     5     2    35    1
     6     3     4    1
     7     3    36    1
     8     3    37    1
     9     4     5    1
    10     4     6    1
    11     4    27    1
    12     6    22    1
    13     6     7    2
    14     7     8    1
    15     8     9    2
    16     9    10    1
    17     9    22    1
    18    10    14    1
    19    10    11    1
    20    11    12    1
    21    11    38    1
    22    11    39    1
    23    12    13    1
    24    12    40    1
    25    12    41    1
    26    13    14    1
    27    13    42    1
    28    13    43    1
    29    14    15    1
    30    14    16    1
    31    16    17    1
    32    16    21    1
    33    16    18    1
    34    18    19    1
    35    18    44    1
    36    18    45    1
    37    19    20    1
    38    19    46    1
    39    19    47    1
    40    20    21    1
    41    20    48    1
    42    20    49    1
    43    22    23    1
    44    23    24    1
    45    23    50    1
    46    23    51    1
    47    24    25    1
    48    24    52    1
    49    24    53    1
    50    25    26    1
    51    26    54    1
    52    26    55    1
    53    26    56    1
    54    27    32   ar
    55    27    28   ar
    56    28    29   ar
    57    28    57    1
    58    29    30   ar
    59    29    58    1
    60    30    31   ar
    61    30    59    1
    62    31    32   ar
    63    31    60    1
    64    32    61    1
@<TRIPOS>SUBSTRUCTURE
     1 ZINC001342629575        1 TEMP              0 ****  ****    0 ROOT


##########                                Name:    ZINC001105793963
##########                DOCK_Rotatable_Bonds:                   9
##########                         Heavy_Atoms:                  24
##########                    Molecular_Weight:             337.422
##########                DOCK_Rotatable_Bonds:                   9
##########                       Formal_Charge:          -0.0100003
##########                     HBond_Acceptors:                   8
##########                        HBond_Donors:                   2
##########                         Heavy_Atoms:                  24
##########                          Grid_Score:          -30.944046
##########                     Grid_vdw_energy:          -29.905952
##########                      Grid_es_energy:           -1.038093
##########           Internal_energy_repulsive:            9.388606

@<TRIPOS>MOLECULE
ZINC001105793963
 51 52 1 0 0
SMALL
USER_CHARGES


@<TRIPOS>ATOM
      1 C1         -3.4783    3.0528   64.4128 C.3     1  ZINC001105793963   -0.1500
      2 C2         -3.5003    1.7519   65.2180 C.3     1  ZINC001105793963   -0.0300
      3 C3         -4.9100    1.4611   65.6643 C.2     1  ZINC001105793963    0.1800
      4 N4         -5.4348    0.2774   65.8718 N.2     1  ZINC001105793963   -0.4800
      5 C5         -6.7037    0.5061   66.2545 C.2     1  ZINC001105793963    0.1700
      6 C6         -7.7296   -0.5384   66.6118 C.3     1  ZINC001105793963    0.1500
      7 N7         -8.4263   -0.9768   65.3951 N.3     1  ZINC001105793963   -0.6900
      8 C8         -9.1388    0.1423   64.7642 C.3     1  ZINC001105793963    0.0700
      9 C9        -10.0921   -0.3972   63.6961 C.3     1  ZINC001105793963   -0.1000
     10 H10       -10.8996   -0.9629   64.1609 H       1  ZINC001105793963    0.1000
     11 C11        -9.3255   -1.2833   62.6907 C.3     1  ZINC001105793963    0.1100
     12 N12        -9.9498   -0.9877   61.3801 N.am    1  ZINC001105793963   -0.6200
     13 C13       -10.2341   -1.8523   60.3860 C.2     1  ZINC001105793963    0.5300
     14 O14        -9.9750   -3.0301   60.5141 O.2     1  ZINC001105793963   -0.5300
     15 C15       -10.8740   -1.3553   59.1153 C.3     1  ZINC001105793963    0.1300
     16 H16       -11.6210   -0.5991   59.3563 H       1  ZINC001105793963    0.1100
     17 C17        -9.8027   -0.7437   58.2102 C.3     1  ZINC001105793963   -0.1600
     18 N18       -11.5177   -2.4743   58.4227 N.am    1  ZINC001105793963   -0.7200
     19 C19       -12.6406   -2.2675   57.7068 C.2     1  ZINC001105793963    0.5200
     20 C20       -13.3039   -3.4188   56.9958 C.3     1  ZINC001105793963   -0.1700
     21 O21       -13.1175   -1.1547   57.6346 O.2     1  ZINC001105793963   -0.5500
     22 C22       -10.1908    0.4738   61.4101 C.3     1  ZINC001105793963    0.1000
     23 C23       -10.6647    0.7615   62.8536 C.3     1  ZINC001105793963   -0.1000
     24 H24       -10.2660    1.7149   63.2004 H       1  ZINC001105793963    0.0900
     25 C25       -12.1933    0.7696   62.9199 C.3     1  ZINC001105793963   -0.1500
     26 N26        -6.8825    1.7932   66.2600 N.2     1  ZINC001105793963   -0.3700
     27 O27        -5.8624    2.3602   65.9296 O.3     1  ZINC001105793963    0.0800
     28 H28        -4.1219    2.9502   63.5392 H       1  ZINC001105793963    0.0600
     29 H29        -3.8385    3.8716   65.0355 H       1  ZINC001105793963    0.0600
     30 H30        -2.4586    3.2631   64.0902 H       1  ZINC001105793963    0.0800
     31 H31        -3.1399    0.9330   64.5953 H       1  ZINC001105793963    0.1100
     32 H32        -2.8565    1.8544   66.0916 H       1  ZINC001105793963    0.1000
     33 H33        -7.2335   -1.3917   67.0740 H       1  ZINC001105793963    0.1000
     34 H34        -8.4509   -0.1150   67.3110 H       1  ZINC001105793963    0.0700
     35 H35        -7.7850   -1.4086   64.7468 H       1  ZINC001105793963    0.3500
     36 H36        -9.7084    0.6828   65.5202 H       1  ZINC001105793963    0.0800
     37 H37        -8.4184    0.8167   64.3011 H       1  ZINC001105793963    0.0400
     38 H38        -8.2689   -1.0161   62.6773 H       1  ZINC001105793963    0.0700
     39 H39        -9.4489   -2.3369   62.9415 H       1  ZINC001105793963    0.0900
     40 H40       -10.2655   -0.3843   57.2911 H       1  ZINC001105793963    0.0800
     41 H41        -9.3237    0.0888   58.7255 H       1  ZINC001105793963    0.0800
     42 H42        -9.0556   -1.5000   57.9692 H       1  ZINC001105793963    0.0600
     43 H43       -11.1357   -3.3641   58.4794 H       1  ZINC001105793963    0.4100
     44 H44       -12.7361   -4.3320   57.1748 H       1  ZINC001105793963    0.0800
     45 H45       -14.3190   -3.5425   57.3729 H       1  ZINC001105793963    0.1000
     46 H46       -13.3360   -3.2150   55.9255 H       1  ZINC001105793963    0.1000
     47 H47        -9.2692    1.0153   61.1967 H       1  ZINC001105793963    0.0800
     48 H48       -10.9669    0.7458   60.6949 H       1  ZINC001105793963    0.0900
     49 H49       -12.5766   -0.1934   62.5826 H       1  ZINC001105793963    0.0600
     50 H50       -12.5115    0.9478   63.9470 H       1  ZINC001105793963    0.0600
     51 H51       -12.5806    1.5600   62.2771 H       1  ZINC001105793963    0.0600
@<TRIPOS>BOND
     1     1     2    1
     2     1    28    1
     3     1    29    1
     4     1    30    1
     5     2     3    1
     6     2    31    1
     7     2    32    1
     8     3    27    1
     9     3     4    2
    10     4     5    1
    11     5     6    1
    12     5    26    2
    13     6     7    1
    14     6    33    1
    15     6    34    1
    16     7     8    1
    17     7    35    1
    18     8     9    1
    19     8    36    1
    20     8    37    1
    21     9    10    1
    22     9    23    1
    23     9    11    1
    24    11    12    1
    25    11    38    1
    26    11    39    1
    27    12    13   am
    28    12    22    1
    29    13    14    2
    30    13    15    1
    31    15    16    1
    32    15    17    1
    33    15    18    1
    34    17    40    1
    35    17    41    1
    36    17    42    1
    37    18    19   am
    38    18    43    1
    39    19    20    1
    40    19    21    2
    41    20    44    1
    42    20    45    1
    43    20    46    1
    44    22    23    1
    45    22    47    1
    46    22    48    1
    47    23    24    1
    48    23    25    1
    49    25    49    1
    50    25    50    1
    51    25    51    1
    52    26    27    1
@<TRIPOS>SUBSTRUCTURE
     1 ZINC001105793963        1 TEMP              0 ****  ****    0 ROOT


##########                                Name:    ZINC001271977984
##########                DOCK_Rotatable_Bonds:                   7
##########                         Heavy_Atoms:                  24
##########                    Molecular_Weight:             328.371
##########                DOCK_Rotatable_Bonds:                   7
##########                       Formal_Charge:           0.0200001
##########                     HBond_Acceptors:                   7
##########                        HBond_Donors:                   0
##########                         Heavy_Atoms:                  24
##########                          Grid_Score:          -30.930252
##########                     Grid_vdw_energy:          -29.866253
##########                      Grid_es_energy:           -1.064000
##########           Internal_energy_repulsive:           52.275803

@<TRIPOS>MOLECULE
ZINC001271977984
 44 46 1 0 0
SMALL
USER_CHARGES


@<TRIPOS>ATOM
      1 C1        -11.3489   -2.5568   56.4164 C.3     1  ZINC001271977984   -0.1800
      2 C2        -11.6096   -3.3401   57.7046 C.3     1  ZINC001271977984    0.1700
      3 H3        -11.0514   -4.2760   57.6799 H       1  ZINC001271977984    0.1100
      4 C4        -11.1653   -2.5213   58.8890 C.2     1  ZINC001271977984    0.2700
      5 N5        -10.7208   -3.0126   60.0064 N.2     1  ZINC001271977984   -0.4700
      6 C6        -10.4145   -1.9863   60.8456 C.ar    1  ZINC001271977984    0.0200
      7 C7         -9.9106   -1.9186   62.1452 C.ar    1  ZINC001271977984   -0.0600
      8 C8         -9.7057   -0.6912   62.7352 C.ar    1  ZINC001271977984   -0.1200
      9 C9         -9.9970    0.4765   62.0461 C.ar    1  ZINC001271977984   -0.0900
     10 C10       -10.4961    0.4246   60.7611 C.ar    1  ZINC001271977984   -0.0900
     11 C11       -10.7080   -0.8022   60.1516 C.ar    1  ZINC001271977984    0.0100
     12 O12       -11.1670   -1.1799   58.9382 O.3     1  ZINC001271977984   -0.2100
     13 N13       -13.0453   -3.6292   57.8198 N.3     1  ZINC001271977984   -0.5300
     14 C14       -13.8056   -2.4085   58.1195 C.3     1  ZINC001271977984    0.0000
     15 C15       -13.5508   -4.2789   56.6032 C.3     1  ZINC001271977984    0.0400
     16 C16       -14.8591   -5.0063   56.9195 C.3     1  ZINC001271977984    0.1200
     17 N17       -15.1778   -5.9337   55.8310 N.am    1  ZINC001271977984   -0.6000
     18 C18       -14.8213   -7.3499   55.9475 C.3     1  ZINC001271977984    0.0800
     19 C19       -15.7987   -5.4840   54.7225 C.2     1  ZINC001271977984    0.6000
     20 O20       -16.0945   -4.3084   54.6259 O.2     1  ZINC001271977984   -0.5300
     21 C21       -16.1193   -6.4173   53.6273 C.2     1  ZINC001271977984   -0.0800
     22 C22       -16.7339   -6.1059   52.4537 C.2     1  ZINC001271977984    0.0200
     23 O23       -16.8289   -7.2439   51.7477 O.3     1  ZINC001271977984   -0.2000
     24 C24       -16.2847   -8.2327   52.4710 C.2     1  ZINC001271977984    0.1800
     25 N25       -15.8511   -7.7509   53.5971 N.2     1  ZINC001271977984   -0.4600
     26 H26       -11.6702   -3.1490   55.5596 H       1  ZINC001271977984    0.0800
     27 H27       -11.9071   -1.6209   56.4410 H       1  ZINC001271977984    0.0800
     28 H28       -10.2836   -2.3423   56.3308 H       1  ZINC001271977984    0.0700
     29 H29        -9.6824   -2.8251   62.6861 H       1  ZINC001271977984    0.1400
     30 H30        -9.3160   -0.6377   63.7410 H       1  ZINC001271977984    0.1400
     31 H31        -9.8322    1.4334   62.5191 H       1  ZINC001271977984    0.1400
     32 H32       -10.7206    1.3382   60.2307 H       1  ZINC001271977984    0.1400
     33 H33       -13.6583   -1.6830   57.3195 H       1  ZINC001271977984    0.0300
     34 H34       -14.8652   -2.6510   58.1995 H       1  ZINC001271977984    0.0700
     35 H35       -13.4574   -1.9858   59.0620 H       1  ZINC001271977984    0.1100
     36 H36       -13.7304   -3.5250   55.8365 H       1  ZINC001271977984    0.0500
     37 H37       -12.8143   -4.9965   56.2416 H       1  ZINC001271977984    0.0800
     38 H38       -14.7496   -5.5625   57.8504 H       1  ZINC001271977984    0.0900
     39 H39       -15.6636   -4.2783   57.0236 H       1  ZINC001271977984    0.0900
     40 H40       -15.6778   -7.9105   56.3220 H       1  ZINC001271977984    0.0600
     41 H41       -14.5355   -7.7343   54.9684 H       1  ZINC001271977984    0.0900
     42 H42       -13.9855   -7.4586   56.6387 H       1  ZINC001271977984    0.0700
     43 H43       -17.0798   -5.1294   52.1485 H       1  ZINC001271977984    0.2300
     44 H44       -16.2147   -9.2660   52.1647 H       1  ZINC001271977984    0.2600
@<TRIPOS>BOND
     1     1     2    1
     2     1    26    1
     3     1    27    1
     4     1    28    1
     5     2     3    1
     6     2     4    1
     7     2    13    1
     8     4    12    1
     9     4     5    2
    10     5     6    1
    11     6    11   ar
    12     6     7   ar
    13     7     8   ar
    14     7    29    1
    15     8     9   ar
    16     8    30    1
    17     9    10   ar
    18     9    31    1
    19    10    11   ar
    20    10    32    1
    21    11    12    1
    22    13    14    1
    23    13    15    1
    24    14    33    1
    25    14    34    1
    26    14    35    1
    27    15    16    1
    28    15    36    1
    29    15    37    1
    30    16    17    1
    31    16    38    1
    32    16    39    1
    33    17    18    1
    34    17    19   am
    35    18    40    1
    36    18    41    1
    37    18    42    1
    38    19    20    2
    39    19    21    1
    40    21    25    1
    41    21    22    2
    42    22    23    1
    43    22    43    1
    44    23    24    1
    45    24    25    2
    46    24    44    1
@<TRIPOS>SUBSTRUCTURE
     1 ZINC001271977984        1 TEMP              0 ****  ****    0 ROOT


##########                                Name:    ZINC000503413572
##########                DOCK_Rotatable_Bonds:                   7
##########                         Heavy_Atoms:                  26
##########                    Molecular_Weight:             355.375
##########                DOCK_Rotatable_Bonds:                   7
##########                       Formal_Charge:        -1.71363e-07
##########                     HBond_Acceptors:                   9
##########                        HBond_Donors:                   1
##########                         Heavy_Atoms:                  26
##########                          Grid_Score:          -30.930185
##########                     Grid_vdw_energy:          -30.305285
##########                      Grid_es_energy:           -0.624902
##########           Internal_energy_repulsive:           11.143468

@<TRIPOS>MOLECULE
ZINC000503413572
 44 47 1 0 0
SMALL
USER_CHARGES


@<TRIPOS>ATOM
      1 C1        -14.7831   -2.3436   55.4549 C.3     1  ZINC000503413572   -0.1200
      2 C2        -14.8717   -3.8473   55.4986 C.ar    1  ZINC000503413572   -0.0200
      3 C3        -15.4822   -4.5336   54.4675 C.ar    1  ZINC000503413572   -0.1400
      4 C4        -15.5635   -5.9157   54.5070 C.ar    1  ZINC000503413572    0.1300
      5 F5        -16.1607   -6.5856   53.4971 F       1  ZINC000503413572   -0.1300
      6 C6        -15.0330   -6.6118   55.5800 C.ar    1  ZINC000503413572   -0.1400
      7 C7        -14.4217   -5.9287   56.6132 C.ar    1  ZINC000503413572   -0.0700
      8 C8        -14.3346   -4.5440   56.5728 C.ar    1  ZINC000503413572    0.1000
      9 N9        -13.7136   -3.8485   57.6209 N.pl3   1  ZINC000503413572   -0.3100
     10 C10       -12.3897   -3.6245   57.7658 C.2     1  ZINC000503413572    0.1100
     11 C11       -12.2340   -2.9117   58.9210 C.2     1  ZINC000503413572   -0.1000
     12 C12       -10.9514   -2.4429   59.4787 C.2     1  ZINC000503413572    0.6100
     13 O13        -9.9029   -2.8643   59.0296 O.2     1  ZINC000503413572   -0.5300
     14 N14       -10.9416   -1.5476   60.4861 N.am    1  ZINC000503413572   -0.7200
     15 C15        -9.6677   -1.0807   61.0388 C.3     1  ZINC000503413572    0.1100
     16 C16        -9.5681   -1.4926   62.5089 C.3     1  ZINC000503413572    0.1000
     17 N17       -10.3362   -0.5549   63.3318 N.pl3   1  ZINC000503413572   -0.4700
     18 C18       -11.5419   -0.0111   63.0378 C.2     1  ZINC000503413572    0.1500
     19 N19       -11.8701    0.7667   64.0333 N.2     1  ZINC000503413572   -0.2900
     20 N20       -10.9453    0.7404   64.9265 N.2     1  ZINC000503413572   -0.2900
     21 C21        -9.9877   -0.0599   64.5440 C.2     1  ZINC000503413572    0.2100
     22 C22        -8.7240   -0.3681   65.3050 C.3     1  ZINC000503413572   -0.1000
     23 C23        -8.0592    0.7810   66.0655 C.3     1  ZINC000503413572   -0.1500
     24 C24        -8.7904   -0.3224   66.8328 C.3     1  ZINC000503413572   -0.1600
     25 N25       -13.4471   -2.7098   59.4634 N.2     1  ZINC000503413572   -0.2000
     26 N26       -14.3483   -3.2468   58.7169 N.2     1  ZINC000503413572   -0.0400
     27 H27       -13.8207   -2.0483   55.0369 H       1  ZINC000503413572    0.0900
     28 H28       -15.5862   -1.9502   54.8315 H       1  ZINC000503413572    0.0800
     29 H29       -14.8783   -1.9445   56.4647 H       1  ZINC000503413572    0.0700
     30 H30       -15.8968   -3.9923   53.6300 H       1  ZINC000503413572    0.1500
     31 H31       -15.0976   -7.6895   55.6093 H       1  ZINC000503413572    0.1500
     32 H32       -14.0084   -6.4719   57.4501 H       1  ZINC000503413572    0.1500
     33 H33       -11.6051   -3.9470   57.0975 H       1  ZINC000503413572    0.2100
     34 H34       -11.7781   -1.2124   60.8452 H       1  ZINC000503413572    0.4100
     35 H35        -8.8444   -1.5258   60.4802 H       1  ZINC000503413572    0.0800
     36 H36        -9.6143    0.0053   60.9613 H       1  ZINC000503413572    0.0800
     37 H37        -9.9702   -2.4982   62.6326 H       1  ZINC000503413572    0.1100
     38 H38        -8.5237   -1.4780   62.8204 H       1  ZINC000503413572    0.1100
     39 H39       -12.1232   -0.1877   62.1450 H       1  ZINC000503413572    0.2200
     40 H40        -8.0727   -1.1154   64.8516 H       1  ZINC000503413572    0.1200
     41 H41        -6.9703    0.7899   66.1126 H       1  ZINC000503413572    0.1100
     42 H42        -8.5359    1.7600   66.0155 H       1  ZINC000503413572    0.1100
     43 H43        -9.7481   -0.0693   67.2876 H       1  ZINC000503413572    0.1000
     44 H44        -8.1825   -1.0394   67.3847 H       1  ZINC000503413572    0.1100
@<TRIPOS>BOND
     1     1     2    1
     2     1    27    1
     3     1    28    1
     4     1    29    1
     5     2     8   ar
     6     2     3   ar
     7     3     4   ar
     8     3    30    1
     9     4     5    1
    10     4     6   ar
    11     6     7   ar
    12     6    31    1
    13     7     8   ar
    14     7    32    1
    15     8     9    1
    16     9    26    1
    17     9    10    1
    18    10    11    2
    19    10    33    1
    20    11    12    1
    21    11    25    1
    22    12    13    2
    23    12    14   am
    24    14    15    1
    25    14    34    1
    26    15    16    1
    27    15    35    1
    28    15    36    1
    29    16    17    1
    30    16    37    1
    31    16    38    1
    32    17    21    1
    33    17    18    1
    34    18    19    2
    35    18    39    1
    36    19    20    1
    37    20    21    2
    38    21    22    1
    39    22    24    1
    40    22    23    1
    41    22    40    1
    42    23    24    1
    43    23    41    1
    44    23    42    1
    45    24    43    1
    46    24    44    1
    47    25    26    2
@<TRIPOS>SUBSTRUCTURE
     1 ZINC000503413572        1 TEMP              0 ****  ****    0 ROOT


##########                                Name:    ZINC001169875900
##########                DOCK_Rotatable_Bonds:                   9
##########                         Heavy_Atoms:                  24
##########                    Molecular_Weight:             329.399
##########                DOCK_Rotatable_Bonds:                   9
##########                       Formal_Charge:          -0.0500002
##########                     HBond_Acceptors:                   6
##########                        HBond_Donors:                   1
##########                         Heavy_Atoms:                  24
##########                          Grid_Score:          -30.900707
##########                     Grid_vdw_energy:          -28.909185
##########                      Grid_es_energy:           -1.991523
##########           Internal_energy_repulsive:           10.002069

@<TRIPOS>MOLECULE
ZINC001169875900
 47 48 1 0 0
SMALL
USER_CHARGES


@<TRIPOS>ATOM
      1 C1        -16.1200    0.5556   64.2424 C.3     1  ZINC001169875900   -0.1500
      2 C2        -14.6343    0.7502   64.5518 C.3     1  ZINC001169875900   -0.1300
      3 C3        -13.7960   -0.0431   63.5474 C.3     1  ZINC001169875900    0.0700
      4 O4        -12.4096    0.1113   63.8570 O.3     1  ZINC001169875900   -0.3100
      5 C5        -11.5203   -0.4604   63.0049 C.ar    1  ZINC001169875900    0.2700
      6 N6        -11.9449   -0.9637   61.8586 N.ar    1  ZINC001169875900   -0.5000
      7 C7        -11.1183   -1.5341   61.0026 C.ar    1  ZINC001169875900    0.0600
      8 C8         -9.7618   -1.6198   61.2772 C.ar    1  ZINC001169875900    0.1400
      9 N9         -8.8906   -2.2267   60.3648 N.pl3   1  ZINC001169875900   -0.7400
     10 C10        -9.3793   -3.2866   59.4796 C.3     1  ZINC001169875900    0.1800
     11 C11       -10.0201   -2.6694   58.2631 C.ar    1  ZINC001169875900    0.1000
     12 C12        -9.4952   -1.5018   57.7324 C.ar    1  ZINC001169875900   -0.1200
     13 C13       -10.0877   -0.9374   56.6134 C.ar    1  ZINC001169875900   -0.0800
     14 C14       -11.1924   -1.5669   56.0619 C.ar    1  ZINC001169875900   -0.1000
     15 C15       -11.6664   -2.7388   56.6483 C.ar    1  ZINC001169875900    0.0900
     16 C16       -12.8457   -3.4235   56.0712 C.2     1  ZINC001169875900    0.5200
     17 O17       -13.3645   -2.9921   55.0616 O.2     1  ZINC001169875900   -0.5000
     18 O18       -13.3428   -4.5248   56.6660 O.3     1  ZINC001169875900   -0.3300
     19 C19       -14.4308   -5.2062   55.9877 C.3     1  ZINC001169875900    0.0600
     20 C20       -14.8238   -6.4545   56.7803 C.3     1  ZINC001169875900   -0.1500
     21 N21       -11.0663   -3.2492   57.7167 N.ar    1  ZINC001169875900   -0.4200
     22 C22        -9.2769   -1.0945   62.4737 C.ar    1  ZINC001169875900   -0.1200
     23 C23       -10.1746   -0.5044   63.3455 C.ar    1  ZINC001169875900   -0.1000
     24 C24        -9.6989    0.0780   64.6515 C.3     1  ZINC001169875900   -0.1000
     25 H25       -16.3708   -0.5027   64.3154 H       1  ZINC001169875900    0.0600
     26 H26       -16.7172    1.1207   64.9580 H       1  ZINC001169875900    0.0600
     27 H27       -16.3305    0.9100   63.2334 H       1  ZINC001169875900    0.0600
     28 H28       -14.4238    0.3957   65.5609 H       1  ZINC001169875900    0.0700
     29 H29       -14.3835    1.8084   64.4788 H       1  ZINC001169875900    0.0700
     30 H30       -13.9871    0.3288   62.5407 H       1  ZINC001169875900    0.0600
     31 H31       -14.0653   -1.0979   63.6023 H       1  ZINC001169875900    0.0600
     32 H32       -11.5026   -1.9389   60.0780 H       1  ZINC001169875900    0.1500
     33 H33        -7.9635   -1.9453   60.3189 H       1  ZINC001169875900    0.4000
     34 H34        -8.5445   -3.9158   59.1707 H       1  ZINC001169875900    0.0800
     35 H35       -10.1144   -3.8925   60.0094 H       1  ZINC001169875900    0.0800
     36 H36        -8.6332   -1.0359   58.1865 H       1  ZINC001169875900    0.1500
     37 H37        -9.6971   -0.0281   56.1811 H       1  ZINC001169875900    0.1500
     38 H38       -11.6791   -1.1549   55.1903 H       1  ZINC001169875900    0.1500
     39 H39       -15.2885   -4.5375   55.9142 H       1  ZINC001169875900    0.0700
     40 H40       -14.1101   -5.4969   54.9874 H       1  ZINC001169875900    0.0700
     41 H41       -13.9661   -7.1231   56.8538 H       1  ZINC001169875900    0.0700
     42 H42       -15.1446   -6.1637   57.7805 H       1  ZINC001169875900    0.0700
     43 H43       -15.6407   -6.9659   56.2710 H       1  ZINC001169875900    0.0800
     44 H44        -8.2255   -1.1471   62.7148 H       1  ZINC001169875900    0.1400
     45 H45        -9.4339    1.1254   64.5072 H       1  ZINC001169875900    0.0700
     46 H46        -8.8250   -0.4734   64.9983 H       1  ZINC001169875900    0.0700
     47 H47       -10.4938    0.0032   65.3936 H       1  ZINC001169875900    0.0700
@<TRIPOS>BOND
     1     1     2    1
     2     1    25    1
     3     1    26    1
     4     1    27    1
     5     2     3    1
     6     2    28    1
     7     2    29    1
     8     3     4    1
     9     3    30    1
    10     3    31    1
    11     4     5    1
    12     5    23   ar
    13     5     6   ar
    14     6     7   ar
    15     7     8   ar
    16     7    32    1
    17     8     9    1
    18     8    22   ar
    19     9    10    1
    20     9    33    1
    21    10    11    1
    22    10    34    1
    23    10    35    1
    24    11    21   ar
    25    11    12   ar
    26    12    13   ar
    27    12    36    1
    28    13    14   ar
    29    13    37    1
    30    14    15   ar
    31    14    38    1
    32    15    16    1
    33    15    21   ar
    34    16    17    2
    35    16    18    1
    36    18    19    1
    37    19    20    1
    38    19    39    1
    39    19    40    1
    40    20    41    1
    41    20    42    1
    42    20    43    1
    43    22    23   ar
    44    22    44    1
    45    23    24    1
    46    24    45    1
    47    24    46    1
    48    24    47    1
@<TRIPOS>SUBSTRUCTURE
     1 ZINC001169875900        1 TEMP              0 ****  ****    0 ROOT


##########                                Name:    ZINC001369071670
##########                DOCK_Rotatable_Bonds:                   8
##########                         Heavy_Atoms:                  24
##########                    Molecular_Weight:             335.366
##########                DOCK_Rotatable_Bonds:                   8
##########                       Formal_Charge:        -2.90573e-07
##########                     HBond_Acceptors:                  10
##########                        HBond_Donors:                   1
##########                         Heavy_Atoms:                  24
##########                          Grid_Score:          -30.868725
##########                     Grid_vdw_energy:          -28.582039
##########                      Grid_es_energy:           -2.286686
##########           Internal_energy_repulsive:            9.594193

@<TRIPOS>MOLECULE
ZINC001369071670
 45 47 1 0 0
SMALL
USER_CHARGES


@<TRIPOS>ATOM
      1 C1         -8.3436    1.3157   53.6882 C.3     1  ZINC001369071670   -0.0800
      2 C2         -7.5313    2.5135   53.2682 C.2     1  ZINC001369071670    0.0000
      3 C3         -6.2122    2.5312   52.9687 C.2     1  ZINC001369071670   -0.2300
      4 C4         -5.9536    3.8878   52.6414 C.2     1  ZINC001369071670    0.2100
      5 O5         -4.7638    4.4229   52.2677 O.3     1  ZINC001369071670   -0.2600
      6 C6         -3.6353    3.5465   52.2500 C.3     1  ZINC001369071670    0.0400
      7 C7         -2.4152    4.3075   51.7991 C.2     1  ZINC001369071670    0.5200
      8 O8         -2.2876    5.4775   52.0924 O.2     1  ZINC001369071670   -0.5100
      9 N9         -1.4658    3.6881   51.0702 N.am    1  ZINC001369071670   -0.7200
     10 C10        -0.2789    4.4275   50.6334 C.3     1  ZINC001369071670    0.1500
     11 H11        -0.5589    5.4519   50.3877 H       1  ZINC001369071670    0.0900
     12 C12         0.7580    4.4382   51.7584 C.3     1  ZINC001369071670   -0.1700
     13 C13         0.3170    3.7513   49.3970 C.3     1  ZINC001369071670   -0.1200
     14 C14         0.4745    2.2267   49.5400 C.3     1  ZINC001369071670    0.0100
     15 N15        -0.0242    2.1443   48.1494 N.3     1  ZINC001369071670   -0.4800
     16 C16        -0.9884    1.0461   48.0002 C.3     1  ZINC001369071670    0.1000
     17 C17        -1.1240    0.6915   46.5418 C.2     1  ZINC001369071670    0.1900
     18 N18        -1.4082    1.5120   45.5601 N.2     1  ZINC001369071670   -0.3000
     19 N19        -1.4337    0.8308   44.4668 N.2     1  ZINC001369071670   -0.0700
     20 N20        -1.1732   -0.4030   44.7257 N.2     1  ZINC001369071670   -0.0900
     21 N21        -0.9710   -0.5283   45.9938 N.pl3   1  ZINC001369071670   -0.3000
     22 C22        -0.6457   -1.7671   46.7049 C.3     1  ZINC001369071670    0.0800
     23 C23        -0.7181    3.4423   48.3004 C.3     1  ZINC001369071670    0.0200
     24 N24        -7.0903    4.5181   52.7713 N.2     1  ZINC001369071670   -0.4100
     25 O25        -7.9759    3.7688   53.1127 O.3     1  ZINC001369071670    0.1000
     26 H26        -9.3774    1.6181   53.8549 H       1  ZINC001369071670    0.0900
     27 H27        -8.3082    0.5595   52.9040 H       1  ZINC001369071670    0.1000
     28 H28        -7.9327    0.9031   54.6097 H       1  ZINC001369071670    0.1000
     29 H29        -5.5171    1.7047   52.9768 H       1  ZINC001369071670    0.1800
     30 H30        -3.4669    3.1505   53.2515 H       1  ZINC001369071670    0.1000
     31 H31        -3.8252    2.7235   51.5610 H       1  ZINC001369071670    0.1000
     32 H32        -1.5684    2.7528   50.8346 H       1  ZINC001369071670    0.4000
     33 H33         0.3334    4.9199   52.6392 H       1  ZINC001369071670    0.0600
     34 H34         1.0381    3.4138   52.0041 H       1  ZINC001369071670    0.0600
     35 H35         1.6411    4.9882   51.4335 H       1  ZINC001369071670    0.0700
     36 H36         1.2110    4.2536   49.0275 H       1  ZINC001369071670    0.1100
     37 H37         1.5082    1.9009   49.6559 H       1  ZINC001369071670    0.1000
     38 H38        -0.1975    1.7828   50.2746 H       1  ZINC001369071670    0.0800
     39 H39        -0.6367    0.1760   48.5545 H       1  ZINC001369071670    0.1000
     40 H40        -1.9575    1.3579   48.3899 H       1  ZINC001369071670    0.0900
     41 H41         0.4366   -1.8929   46.7392 H       1  ZINC001369071670    0.1000
     42 H42        -1.0379   -1.7168   47.7206 H       1  ZINC001369071670    0.1000
     43 H43        -1.0934   -2.6134   46.1839 H       1  ZINC001369071670    0.1100
     44 H44        -1.7388    3.3540   48.6724 H       1  ZINC001369071670    0.0800
     45 H45        -0.6373    4.0879   47.4258 H       1  ZINC001369071670    0.1000
@<TRIPOS>BOND
     1     1     2    1
     2     1    26    1
     3     1    27    1
     4     1    28    1
     5     2    25    1
     6     2     3    2
     7     3     4    1
     8     3    29    1
     9     4     5    1
    10     4    24    2
    11     5     6    1
    12     6     7    1
    13     6    30    1
    14     6    31    1
    15     7     8    2
    16     7     9   am
    17     9    10    1
    18     9    32    1
    19    10    11    1
    20    10    12    1
    21    10    13    1
    22    12    33    1
    23    12    34    1
    24    12    35    1
    25    13    23    1
    26    13    14    1
    27    13    36    1
    28    14    15    1
    29    14    37    1
    30    14    38    1
    31    15    16    1
    32    15    23    1
    33    16    17    1
    34    16    39    1
    35    16    40    1
    36    17    21    1
    37    17    18    2
    38    18    19    1
    39    19    20    2
    40    20    21    1
    41    21    22    1
    42    22    41    1
    43    22    42    1
    44    22    43    1
    45    23    44    1
    46    23    45    1
    47    24    25    1
@<TRIPOS>SUBSTRUCTURE
     1 ZINC001369071670        1 TEMP              0 ****  ****    0 ROOT


##########                                Name:    ZINC000425987417
##########                DOCK_Rotatable_Bonds:                   9
##########                         Heavy_Atoms:                  25
##########                    Molecular_Weight:             357.419
##########                DOCK_Rotatable_Bonds:                   9
##########                       Formal_Charge:         -0.00999992
##########                     HBond_Acceptors:                   7
##########                        HBond_Donors:                   1
##########                         Heavy_Atoms:                  25
##########                          Grid_Score:          -30.838648
##########                     Grid_vdw_energy:          -28.096930
##########                      Grid_es_energy:           -2.741719
##########           Internal_energy_repulsive:           13.013007

@<TRIPOS>MOLECULE
ZINC000425987417
 51 52 1 0 0
SMALL
USER_CHARGES


@<TRIPOS>ATOM
      1 C1        -12.4778    1.0359   65.0878 C.3     1  ZINC000425987417   -0.1500
      2 C2        -11.1494    1.7320   64.7850 C.3     1  ZINC000425987417    0.0400
      3 N3        -10.1103    0.7214   64.5463 N.3     1  ZINC000425987417   -0.5300
      4 C4         -9.9716    0.4377   63.1116 C.3     1  ZINC000425987417    0.0400
      5 C5         -9.5225   -1.0122   62.9196 C.3     1  ZINC000425987417    0.1400
      6 N6         -9.4391   -1.3121   61.4880 N.am    1  ZINC000425987417   -0.7500
      7 C7        -10.4580   -1.9429   60.8711 C.2     1  ZINC000425987417    0.7200
      8 O8        -11.4463   -2.2629   61.5028 O.2     1  ZINC000425987417   -0.5800
      9 N9        -10.3812   -2.2187   59.5542 N.am    1  ZINC000425987417   -0.6200
     10 C10        -9.1986   -1.8443   58.7612 C.3     1  ZINC000425987417    0.1300
     11 C11        -9.6381   -0.8181   57.7181 C.3     1  ZINC000425987417   -0.1000
     12 C12       -10.8882   -1.2730   57.0122 C.ar    1  ZINC000425987417   -0.0600
     13 C13       -11.1776   -0.6994   55.7804 C.ar    1  ZINC000425987417   -0.1200
     14 C14       -12.3120   -1.0642   55.0854 C.ar    1  ZINC000425987417   -0.1100
     15 C15       -13.1709   -2.0075   55.6177 C.ar    1  ZINC000425987417   -0.1200
     16 C16       -12.8842   -2.5814   56.8395 C.ar    1  ZINC000425987417   -0.1100
     17 C17       -11.7402   -2.2194   57.5370 C.ar    1  ZINC000425987417   -0.0900
     18 C18       -11.4701   -2.9093   58.8548 C.3     1  ZINC000425987417    0.1800
     19 H19       -12.3701   -2.8829   59.4692 H       1  ZINC000425987417    0.0900
     20 C20       -11.0729   -4.3640   58.5958 C.3     1  ZINC000425987417   -0.1600
     21 C21        -8.8270    1.1384   65.1270 C.3     1  ZINC000425987417    0.0500
     22 C22        -8.7748    0.7249   66.5991 C.3     1  ZINC000425987417   -0.1600
     23 C23        -8.2334   -0.7018   66.7093 C.3     1  ZINC000425987417    0.4500
     24 F24        -8.9774   -1.5483   65.8804 F       1  ZINC000425987417   -0.1800
     25 F25        -6.8917   -0.7233   66.3138 F       1  ZINC000425987417   -0.1800
     26 F26        -8.3360   -1.1385   68.0344 F       1  ZINC000425987417   -0.1900
     27 H27       -12.3802    0.4479   66.0005 H       1  ZINC000425987417    0.0500
     28 H28       -13.2587    1.7848   65.2199 H       1  ZINC000425987417    0.0600
     29 H29       -12.7410    0.3790   64.2588 H       1  ZINC000425987417    0.0700
     30 H30       -11.2600    2.3559   63.8981 H       1  ZINC000425987417    0.0800
     31 H31       -10.8634    2.3538   65.6334 H       1  ZINC000425987417    0.0400
     32 H32       -10.9309    0.5895   62.6169 H       1  ZINC000425987417    0.0500
     33 H33        -9.2294    1.1084   62.6788 H       1  ZINC000425987417    0.0800
     34 H34        -8.5437   -1.1531   63.3780 H       1  ZINC000425987417    0.0800
     35 H35       -10.2435   -1.6811   63.3895 H       1  ZINC000425987417    0.0700
     36 H36        -8.6506   -1.0567   60.9842 H       1  ZINC000425987417    0.3900
     37 H37        -8.4414   -1.4073   59.4123 H       1  ZINC000425987417    0.1000
     38 H38        -8.7940   -2.7257   58.2639 H       1  ZINC000425987417    0.0700
     39 H39        -9.8314    0.1344   58.2113 H       1  ZINC000425987417    0.0800
     40 H40        -8.8409   -0.6868   56.9864 H       1  ZINC000425987417    0.0900
     41 H41       -10.5088    0.0390   55.3634 H       1  ZINC000425987417    0.1200
     42 H42       -12.5288   -0.6137   54.1280 H       1  ZINC000425987417    0.1200
     43 H43       -14.0626   -2.2938   55.0799 H       1  ZINC000425987417    0.1200
     44 H44       -13.5552   -3.3179   57.2562 H       1  ZINC000425987417    0.1200
     45 H45       -10.1739   -4.3911   57.9802 H       1  ZINC000425987417    0.0700
     46 H46       -10.8781   -4.8620   59.5456 H       1  ZINC000425987417    0.0600
     47 H47       -11.8839   -4.8752   58.0771 H       1  ZINC000425987417    0.0700
     48 H48        -8.0107    0.6597   64.5860 H       1  ZINC000425987417    0.0500
     49 H49        -8.7282    2.2212   65.0500 H       1  ZINC000425987417    0.0900
     50 H50        -8.1205    1.4050   67.1446 H       1  ZINC000425987417    0.1200
     51 H51        -9.7777    0.7668   67.0239 H       1  ZINC000425987417    0.1100
@<TRIPOS>BOND
     1     1     2    1
     2     1    27    1
     3     1    28    1
     4     1    29    1
     5     2     3    1
     6     2    30    1
     7     2    31    1
     8     3     4    1
     9     3    21    1
    10     4     5    1
    11     4    32    1
    12     4    33    1
    13     5     6    1
    14     5    34    1
    15     5    35    1
    16     6     7   am
    17     6    36    1
    18     7     8    2
    19     7     9   am
    20     9    18    1
    21     9    10    1
    22    10    11    1
    23    10    37    1
    24    10    38    1
    25    11    12    1
    26    11    39    1
    27    11    40    1
    28    12    17   ar
    29    12    13   ar
    30    13    14   ar
    31    13    41    1
    32    14    15   ar
    33    14    42    1
    34    15    16   ar
    35    15    43    1
    36    16    17   ar
    37    16    44    1
    38    17    18    1
    39    18    19    1
    40    18    20    1
    41    20    45    1
    42    20    46    1
    43    20    47    1
    44    21    22    1
    45    21    48    1
    46    21    49    1
    47    22    23    1
    48    22    50    1
    49    22    51    1
    50    23    24    1
    51    23    25    1
    52    23    26    1
@<TRIPOS>SUBSTRUCTURE
     1 ZINC000425987417        1 TEMP              0 ****  ****    0 ROOT


##########                                Name:    ZINC000274225049
##########                DOCK_Rotatable_Bonds:                   6
##########                         Heavy_Atoms:                  25
##########                    Molecular_Weight:             380.895
##########                DOCK_Rotatable_Bonds:                   6
##########                       Formal_Charge:           0.0200006
##########                     HBond_Acceptors:                   7
##########                        HBond_Donors:                   2
##########                         Heavy_Atoms:                  25
##########                          Grid_Score:          -30.822411
##########                     Grid_vdw_energy:          -27.868059
##########                      Grid_es_energy:           -2.954352
##########           Internal_energy_repulsive:           25.089174

@<TRIPOS>MOLECULE
ZINC000274225049
 46 48 1 0 0
SMALL
USER_CHARGES


@<TRIPOS>ATOM
      1 C1        -10.4882    1.0977   62.3709 C.3     1  ZINC000274225049   -0.1600
      2 C2        -10.4431   -0.3421   62.8864 C.3     1  ZINC000274225049    0.2000
      3 H3        -11.3025   -0.5242   63.5316 H       1  ZINC000274225049    0.1100
      4 N4         -9.2085   -0.5499   63.6471 N.am    1  ZINC000274225049   -0.7400
      5 C5         -9.1670   -0.2480   64.9600 C.2     1  ZINC000274225049    0.7100
      6 O6        -10.1547    0.1956   65.5132 O.2     1  ZINC000274225049   -0.5800
      7 N7         -8.0308   -0.4377   65.6595 N.am    1  ZINC000274225049   -0.7500
      8 C8         -7.9862   -0.1112   67.0869 C.3     1  ZINC000274225049    0.1500
      9 C9         -7.5246    1.3367   67.2647 C.3     1  ZINC000274225049   -0.1000
     10 H10        -7.5116    1.5968   68.3232 H       1  ZINC000274225049    0.1000
     11 C11        -8.4631    2.2866   66.5001 C.3     1  ZINC000274225049   -0.1100
     12 C12        -7.7962    3.6736   66.4097 C.3     1  ZINC000274225049   -0.5900
     13 S13        -5.9981    3.3412   66.4575 S.o2    1  ZINC000274225049    2.3900
     14 O14        -5.4295    3.6435   65.1908 O.2     1  ZINC000274225049   -0.9300
     15 O15        -5.4450    3.9113   67.6357 O.2     1  ZINC000274225049   -0.9300
     16 C16        -6.1111    1.5222   66.6550 C.3     1  ZINC000274225049   -0.5900
     17 C17       -10.4805   -1.2948   61.7193 C.ar    1  ZINC000274225049   -0.0700
     18 C18       -11.7124   -1.7197   61.1941 C.ar    1  ZINC000274225049   -0.0300
     19 C19       -12.9298   -1.2732   61.7362 C.ar    1  ZINC000274225049   -0.1100
     20 C20       -14.1039   -1.7057   61.2011 C.ar    1  ZINC000274225049   -0.1100
     21 C21       -14.1191   -2.5869   60.1213 C.ar    1  ZINC000274225049   -0.1100
     22 C22       -12.9601   -3.0403   59.5706 C.ar    1  ZINC000274225049   -0.1000
     23 C23       -11.7279   -2.6157   60.0960 C.ar    1  ZINC000274225049   -0.0400
     24 C24       -10.5098   -3.0619   59.5535 C.ar    1  ZINC000274225049   -0.0300
     25 Cl25      -10.5034   -4.1589   58.2079 Cl      1  ZINC000274225049   -0.0600
     26 C26        -9.3347   -2.6281   60.0893 C.ar    1  ZINC000274225049   -0.1000
     27 C27        -9.3206   -1.7435   61.1653 C.ar    1  ZINC000274225049   -0.1000
     28 H28       -10.4613    1.7869   63.2150 H       1  ZINC000274225049    0.0700
     29 H29        -9.6288    1.2798   61.7256 H       1  ZINC000274225049    0.0700
     30 H30       -11.4069    1.2524   61.8049 H       1  ZINC000274225049    0.0800
     31 H31        -8.4209   -0.9049   63.2060 H       1  ZINC000274225049    0.4000
     32 H32        -7.2424   -0.7904   65.2178 H       1  ZINC000274225049    0.4000
     33 H33        -8.9799   -0.2314   67.5184 H       1  ZINC000274225049    0.0800
     34 H34        -7.2880   -0.7795   67.5909 H       1  ZINC000274225049    0.0800
     35 H35        -8.6393    1.8986   65.4969 H       1  ZINC000274225049    0.0900
     36 H36        -9.4117    2.3700   67.0306 H       1  ZINC000274225049    0.0900
     37 H37        -8.0658    4.1630   65.4738 H       1  ZINC000274225049    0.1400
     38 H38        -8.0896    4.2908   67.2588 H       1  ZINC000274225049    0.1400
     39 H39        -5.3433    1.1587   67.3379 H       1  ZINC000274225049    0.1400
     40 H40        -6.0389    1.0228   65.6888 H       1  ZINC000274225049    0.1400
     41 H41       -12.9334   -0.5906   62.5731 H       1  ZINC000274225049    0.1300
     42 H42       -15.0381   -1.3614   61.6198 H       1  ZINC000274225049    0.1300
     43 H43       -15.0647   -2.9150   59.7158 H       1  ZINC000274225049    0.1300
     44 H44       -12.9872   -3.7231   58.7343 H       1  ZINC000274225049    0.1300
     45 H45        -8.4002   -2.9723   59.6713 H       1  ZINC000274225049    0.1300
     46 H46        -8.3754   -1.4151   61.5714 H       1  ZINC000274225049    0.1300
@<TRIPOS>BOND
     1     1     2    1
     2     1    28    1
     3     1    29    1
     4     1    30    1
     5     2     3    1
     6     2     4    1
     7     2    17    1
     8     4     5   am
     9     4    31    1
    10     5     6    2
    11     5     7   am
    12     7     8    1
    13     7    32    1
    14     8     9    1
    15     8    33    1
    16     8    34    1
    17     9    10    1
    18     9    16    1
    19     9    11    1
    20    11    12    1
    21    11    35    1
    22    11    36    1
    23    12    13    1
    24    12    37    1
    25    12    38    1
    26    13    14    2
    27    13    15    2
    28    13    16    1
    29    16    39    1
    30    16    40    1
    31    17    27   ar
    32    17    18   ar
    33    18    23   ar
    34    18    19   ar
    35    19    20   ar
    36    19    41    1
    37    20    21   ar
    38    20    42    1
    39    21    22   ar
    40    21    43    1
    41    22    23   ar
    42    22    44    1
    43    23    24   ar
    44    24    25    1
    45    24    26   ar
    46    26    27   ar
    47    26    45    1
    48    27    46    1
@<TRIPOS>SUBSTRUCTURE
     1 ZINC000274225049        1 TEMP              0 ****  ****    0 ROOT


##########                                Name:    ZINC001408567397
##########                DOCK_Rotatable_Bonds:                   9
##########                         Heavy_Atoms:                  24
##########                    Molecular_Weight:             336.434
##########                DOCK_Rotatable_Bonds:                   9
##########                       Formal_Charge:          -0.0199996
##########                     HBond_Acceptors:                   7
##########                        HBond_Donors:                   2
##########                         Heavy_Atoms:                  24
##########                          Grid_Score:          -30.814312
##########                     Grid_vdw_energy:          -31.246504
##########                      Grid_es_energy:            0.432191
##########           Internal_energy_repulsive:           16.908882

@<TRIPOS>MOLECULE
ZINC001408567397
 52 53 1 0 0
SMALL
USER_CHARGES


@<TRIPOS>ATOM
      1 C1        -10.0732   -0.5340   52.6304 C.3     1  ZINC001408567397   -0.0800
      2 C2         -8.7133    0.0638   52.3767 C.2     1  ZINC001408567397    0.0900
      3 N3         -7.8089   -0.4074   51.5571 N.2     1  ZINC001408567397   -0.2900
      4 N4         -6.6900    0.4338   51.6095 N.pl3   1  ZINC001408567397   -0.4700
      5 C5         -6.9551    1.4236   52.4876 C.2     1  ZINC001408567397    0.1100
      6 C6         -6.0306    2.5546   52.8574 C.3     1  ZINC001408567397   -0.1000
      7 C7         -8.2023    1.2216   52.9724 C.2     1  ZINC001408567397   -0.2200
      8 C8         -8.9118    2.0863   53.9823 C.3     1  ZINC001408567397   -0.0600
      9 C9         -8.5668    1.6202   55.3733 C.2     1  ZINC001408567397    0.5100
     10 O10        -7.6604    2.1479   55.9823 O.2     1  ZINC001408567397   -0.5300
     11 N11        -9.2656    0.6170   55.9406 N.am    1  ZINC001408567397   -0.7300
     12 C12        -8.9313    0.1651   57.2935 C.3     1  ZINC001408567397    0.1100
     13 C13       -10.0156   -0.7912   57.7942 C.3     1  ZINC001408567397    0.1000
     14 N14        -9.6777   -1.2487   59.1443 N.am    1  ZINC001408567397   -0.6200
     15 C15        -9.1816   -2.6112   59.3532 C.3     1  ZINC001408567397    0.0700
     16 C16        -9.8233   -0.4161   60.1941 C.2     1  ZINC001408567397    0.5100
     17 O17       -10.2354    0.7113   60.0213 O.2     1  ZINC001408567397   -0.5300
     18 C18        -9.4740   -0.8862   61.5826 C.3     1  ZINC001408567397   -0.1300
     19 C19        -9.8620    0.1903   62.5982 C.3     1  ZINC001408567397   -0.1100
     20 H20        -9.5223    1.1639   62.2447 H       1  ZINC001408567397    0.0900
     21 C21       -11.3843    0.2099   62.7673 C.3     1  ZINC001408567397   -0.1200
     22 C22       -11.7545    1.2364   63.8422 C.3     1  ZINC001408567397   -0.1600
     23 C23       -11.0298    0.8846   65.1440 C.3     1  ZINC001408567397    0.0600
     24 O24        -9.6205    0.8533   64.9096 O.3     1  ZINC001408567397   -0.3800
     25 C25        -9.2091   -0.1202   63.9477 C.3     1  ZINC001408567397    0.0600
     26 H26       -10.7922   -0.1126   51.9278 H       1  ZINC001408567397    0.0800
     27 H27       -10.0257   -1.6148   52.4971 H       1  ZINC001408567397    0.0700
     28 H28       -10.3855   -0.3070   53.6498 H       1  ZINC001408567397    0.0800
     29 H29        -5.8694    0.3241   51.1039 H       1  ZINC001408567397    0.4400
     30 H30        -6.1996    3.3964   52.1861 H       1  ZINC001408567397    0.0800
     31 H31        -6.2269    2.8635   53.8841 H       1  ZINC001408567397    0.0900
     32 H32        -4.9963    2.2219   52.7696 H       1  ZINC001408567397    0.0700
     33 H33        -8.5975    3.1225   53.8580 H       1  ZINC001408567397    0.1000
     34 H34        -9.9887    2.0125   53.8311 H       1  ZINC001408567397    0.1000
     35 H35        -9.9897    0.1941   55.4531 H       1  ZINC001408567397    0.4000
     36 H36        -7.9712   -0.3506   57.2776 H       1  ZINC001408567397    0.0700
     37 H37        -8.8703    1.0259   57.9594 H       1  ZINC001408567397    0.0700
     38 H38       -10.9747   -0.2739   57.8153 H       1  ZINC001408567397    0.0800
     39 H39       -10.0802   -1.6494   57.1254 H       1  ZINC001408567397    0.0900
     40 H40        -8.0944   -2.6179   59.2761 H       1  ZINC001408567397    0.0600
     41 H41        -9.4776   -2.9579   60.3433 H       1  ZINC001408567397    0.0800
     42 H42        -9.6037   -3.2717   58.5959 H       1  ZINC001408567397    0.0800
     43 H43       -10.0169   -1.8055   61.8024 H       1  ZINC001408567397    0.1000
     44 H44        -8.4020   -1.0738   61.6438 H       1  ZINC001408567397    0.1000
     45 H45       -11.8525    0.4861   61.8226 H       1  ZINC001408567397    0.0700
     46 H46       -11.7300   -0.7779   63.0720 H       1  ZINC001408567397    0.0600
     47 H47       -11.4529    2.2314   63.5149 H       1  ZINC001408567397    0.0700
     48 H48       -12.8316    1.2176   64.0084 H       1  ZINC001408567397    0.0700
     49 H49       -11.2559    1.6360   65.9004 H       1  ZINC001408567397    0.0900
     50 H50       -11.3621   -0.0934   65.4921 H       1  ZINC001408567397    0.0500
     51 H51        -9.5173   -1.1118   64.2793 H       1  ZINC001408567397    0.0400
     52 H52        -8.1245   -0.0925   63.8433 H       1  ZINC001408567397    0.1100
@<TRIPOS>BOND
     1     1     2    1
     2     1    26    1
     3     1    27    1
     4     1    28    1
     5     2     7    1
     6     2     3    2
     7     3     4    1
     8     4     5    1
     9     4    29    1
    10     5     6    1
    11     5     7    2
    12     6    30    1
    13     6    31    1
    14     6    32    1
    15     7     8    1
    16     8     9    1
    17     8    33    1
    18     8    34    1
    19     9    10    2
    20     9    11   am
    21    11    12    1
    22    11    35    1
    23    12    13    1
    24    12    36    1
    25    12    37    1
    26    13    14    1
    27    13    38    1
    28    13    39    1
    29    14    15    1
    30    14    16   am
    31    15    40    1
    32    15    41    1
    33    15    42    1
    34    16    17    2
    35    16    18    1
    36    18    19    1
    37    18    43    1
    38    18    44    1
    39    19    20    1
    40    19    25    1
    41    19    21    1
    42    21    22    1
    43    21    45    1
    44    21    46    1
    45    22    23    1
    46    22    47    1
    47    22    48    1
    48    23    24    1
    49    23    49    1
    50    23    50    1
    51    24    25    1
    52    25    51    1
    53    25    52    1
@<TRIPOS>SUBSTRUCTURE
     1 ZINC001408567397        1 TEMP              0 ****  ****    0 ROOT


##########                                Name:    ZINC000564088286
##########                DOCK_Rotatable_Bonds:                   6
##########                         Heavy_Atoms:                  25
##########                    Molecular_Weight:             398.934
##########                DOCK_Rotatable_Bonds:                   6
##########                       Formal_Charge:               -0.05
##########                     HBond_Acceptors:                   8
##########                        HBond_Donors:                   1
##########                         Heavy_Atoms:                  25
##########                          Grid_Score:          -30.771000
##########                     Grid_vdw_energy:          -29.529144
##########                      Grid_es_energy:           -1.241856
##########           Internal_energy_repulsive:           11.427132

@<TRIPOS>MOLECULE
ZINC000564088286
 44 46 1 0 0
SMALL
USER_CHARGES


@<TRIPOS>ATOM
      1 C1         -6.5729    0.1132   50.9461 C.3     1  ZINC000564088286   -0.1600
      2 C2         -6.3239    0.4424   52.4194 C.3     1  ZINC000564088286    0.1100
      3 N3         -5.8258    1.8152   52.5355 N.am    1  ZINC000564088286   -1.1200
      4 S4         -6.8817    3.0571   52.8277 S.o2    1  ZINC000564088286    2.7000
      5 O5         -6.0884    4.2176   53.0355 O.2     1  ZINC000564088286   -0.9600
      6 O6         -7.8877    2.9721   51.8277 O.2     1  ZINC000564088286   -0.9600
      7 C7         -7.6761    2.7160   54.3629 C.ar    1  ZINC000564088286   -0.6800
      8 C8         -6.9542    2.7660   55.5408 C.ar    1  ZINC000564088286   -0.0200
      9 C9         -7.5774    2.4984   56.7453 C.ar    1  ZINC000564088286   -0.1300
     10 C10        -8.9227    2.1812   56.7721 C.ar    1  ZINC000564088286   -0.0100
     11 C11        -9.6019    1.8890   58.0852 C.3     1  ZINC000564088286   -0.1100
     12 C12        -9.7647    0.3994   58.2459 C.2     1  ZINC000564088286    0.5200
     13 O13        -9.4164   -0.3481   57.3566 O.2     1  ZINC000564088286   -0.5200
     14 N14       -10.2972   -0.1021   59.3778 N.am    1  ZINC000564088286   -0.6200
     15 C15       -10.4649   -1.5524   59.5551 C.3     1  ZINC000564088286    0.1200
     16 C16        -9.5615   -2.0113   60.7038 C.3     1  ZINC000564088286   -0.0700
     17 C17        -9.7080   -1.0489   61.8634 C.2     1  ZINC000564088286   -0.1600
     18 C18       -10.2137    0.1956   61.7770 C.2     1  ZINC000564088286   -0.1200
     19 C19       -10.2302    0.8808   62.9883 C.2     1  ZINC000564088286   -0.1100
     20 C20        -9.7574    0.2097   64.0352 C.2     1  ZINC000564088286   -0.1500
     21 Cl21       -9.6646    0.8213   65.6573 Cl      1  ZINC000564088286   -0.0100
     22 S22        -9.2418   -1.3906   63.5248 S.3     1  ZINC000564088286    0.1600
     23 C23       -10.7200    0.7857   60.4703 C.3     1  ZINC000564088286    0.1700
     24 C24        -9.6448    2.1326   55.5944 C.ar    1  ZINC000564088286   -0.1300
     25 C25        -9.0225    2.4040   54.3903 C.ar    1  ZINC000564088286   -0.0200
     26 H26        -7.3121    0.8034   50.5395 H       1  ZINC000564088286    0.0600
     27 H27        -5.6407    0.2097   50.3897 H       1  ZINC000564088286    0.0600
     28 H28        -6.9435   -0.9083   50.8597 H       1  ZINC000564088286    0.0700
     29 H29        -7.2562    0.3458   52.9759 H       1  ZINC000564088286    0.0800
     30 H30        -5.5848   -0.2479   52.8261 H       1  ZINC000564088286    0.0700
     31 H31        -4.8776    1.9968   52.4414 H       1  ZINC000564088286    0.4200
     32 H32        -5.9033    3.0138   55.5199 H       1  ZINC000564088286    0.1400
     33 H33        -7.0132    2.5367   57.6654 H       1  ZINC000564088286    0.1300
     34 H34        -8.9953    2.2784   58.9027 H       1  ZINC000564088286    0.1100
     35 H35       -10.5822    2.3654   58.1011 H       1  ZINC000564088286    0.1100
     36 H36       -11.5046   -1.7738   59.7961 H       1  ZINC000564088286    0.0800
     37 H37       -10.1813   -2.0684   58.6377 H       1  ZINC000564088286    0.1100
     38 H38        -9.8554   -3.0119   61.0212 H       1  ZINC000564088286    0.0900
     39 H39        -8.5242   -2.0237   60.3693 H       1  ZINC000564088286    0.0900
     40 H40       -10.6022    1.8912   63.0729 H       1  ZINC000564088286    0.1500
     41 H41       -10.2971    1.7799   60.3258 H       1  ZINC000564088286    0.1000
     42 H42       -11.8081    0.8457   60.4893 H       1  ZINC000564088286    0.0900
     43 H43       -10.6959    1.8852   55.6154 H       1  ZINC000564088286    0.1300
     44 H44        -9.5867    2.3660   53.4702 H       1  ZINC000564088286    0.1400
@<TRIPOS>BOND
     1     1     2    1
     2     1    26    1
     3     1    27    1
     4     1    28    1
     5     2     3    1
     6     2    29    1
     7     2    30    1
     8     3     4   am
     9     3    31    1
    10     4     5    2
    11     4     6    2
    12     4     7    1
    13     7    25   ar
    14     7     8   ar
    15     8     9   ar
    16     8    32    1
    17     9    10   ar
    18     9    33    1
    19    10    11    1
    20    10    24   ar
    21    11    12    1
    22    11    34    1
    23    11    35    1
    24    12    13    2
    25    12    14   am
    26    14    23    1
    27    14    15    1
    28    15    16    1
    29    15    36    1
    30    15    37    1
    31    16    17    1
    32    16    38    1
    33    16    39    1
    34    17    22    1
    35    17    18    2
    36    18    19    1
    37    18    23    1
    38    19    20    2
    39    19    40    1
    40    20    21    1
    41    20    22    1
    42    23    41    1
    43    23    42    1
    44    24    25   ar
    45    24    43    1
    46    25    44    1
@<TRIPOS>SUBSTRUCTURE
     1 ZINC000564088286        1 TEMP              0 ****  ****    0 ROOT


##########                                Name:    ZINC000492313853
##########                DOCK_Rotatable_Bonds:                   8
##########                         Heavy_Atoms:                  30
##########                    Molecular_Weight:             418.422
##########                DOCK_Rotatable_Bonds:                   8
##########                       Formal_Charge:          -0.0100008
##########                     HBond_Acceptors:                  10
##########                        HBond_Donors:                   2
##########                         Heavy_Atoms:                  30
##########                          Grid_Score:          -30.756418
##########                     Grid_vdw_energy:          -31.150995
##########                      Grid_es_energy:            0.394578
##########           Internal_energy_repulsive:           11.465319

@<TRIPOS>MOLECULE
ZINC000492313853
 51 53 1 0 0
SMALL
USER_CHARGES


@<TRIPOS>ATOM
      1 C1        -17.3993   -8.2302   52.2426 C.3     1  ZINC000492313853    0.0900
      2 N2        -16.8144   -6.8933   52.3728 N.pl3   1  ZINC000492313853   -0.6200
      3 C3        -17.0138   -5.9004   51.3142 C.3     1  ZINC000492313853    0.1000
      4 C4        -16.0705   -6.5669   53.5007 C.ar    1  ZINC000492313853    0.4100
      5 C5        -15.5220   -5.2943   53.6200 C.ar    1  ZINC000492313853   -0.2400
      6 C6        -14.7842   -4.9828   54.7481 C.ar    1  ZINC000492313853   -0.0100
      7 C7        -14.6193   -5.9581   55.7222 C.ar    1  ZINC000492313853   -0.2300
      8 C8        -13.8239   -5.6632   56.9678 C.3     1  ZINC000492313853    0.2000
      9 N9        -13.9306   -4.2379   57.2893 N.am    1  ZINC000492313853   -0.7300
     10 C10       -12.9535   -3.6305   57.9912 C.2     1  ZINC000492313853    0.7100
     11 O11       -11.9827   -4.2650   58.3565 O.2     1  ZINC000492313853   -0.5600
     12 N12       -13.0524   -2.3195   58.2883 N.am    1  ZINC000492313853   -0.6600
     13 C13       -12.0417   -1.6911   59.0164 C.2     1  ZINC000492313853    0.3300
     14 C14       -12.0857   -1.3700   60.3361 C.2     1  ZINC000492313853   -0.2600
     15 C15       -10.8658   -0.7522   60.6692 C.2     1  ZINC000492313853    0.1200
     16 C16       -10.4862   -0.2409   62.0098 C.ar    1  ZINC000492313853   -0.0100
     17 C17        -9.5894   -0.9544   62.8018 C.ar    1  ZINC000492313853   -0.0600
     18 C18        -9.2394   -0.4741   64.0478 C.ar    1  ZINC000492313853   -0.1200
     19 C19        -9.7772    0.7132   64.5100 C.ar    1  ZINC000492313853   -0.0700
     20 C20       -10.6682    1.4259   63.7276 C.ar    1  ZINC000492313853   -0.1900
     21 C21       -11.2498    2.7191   64.2378 C.3     1  ZINC000492313853    0.5100
     22 F22       -11.0959    3.7147   63.2670 F       1  ZINC000492313853   -0.1800
     23 F23       -12.6100    2.5423   64.5127 F       1  ZINC000492313853   -0.1800
     24 F24       -10.5833    3.1010   65.4070 F       1  ZINC000492313853   -0.1800
     25 C25       -11.0210    0.9575   62.4784 C.ar    1  ZINC000492313853   -0.0400
     26 N26       -10.1202   -0.7063   59.5856 N.2     1  ZINC000492313853   -0.2700
     27 N27       -10.8344   -1.2954   58.5348 N.pl3   1  ZINC000492313853   -0.3900
     28 C28       -10.3657   -1.4494   57.1553 C.3     1  ZINC000492313853    0.1000
     29 C29       -15.1919   -7.2009   55.5385 C.ar    1  ZINC000492313853    0.1700
     30 N30       -15.8950   -7.4686   54.4545 N.ar    1  ZINC000492313853   -0.5400
     31 H31       -16.6904   -8.8898   51.7420 H       1  ZINC000492313853    0.0600
     32 H32       -17.6264   -8.6255   53.2328 H       1  ZINC000492313853    0.0700
     33 H33       -18.3162   -8.1702   51.6563 H       1  ZINC000492313853    0.0700
     34 H34       -17.6177   -6.3349   50.5175 H       1  ZINC000492313853    0.0700
     35 H35       -17.5256   -5.0298   51.7243 H       1  ZINC000492313853    0.0600
     36 H36       -16.0465   -5.5977   50.9131 H       1  ZINC000492313853    0.0600
     37 H37       -15.6697   -4.5595   52.8425 H       1  ZINC000492313853    0.1300
     38 H38       -14.3459   -4.0030   54.8680 H       1  ZINC000492313853    0.1400
     39 H39       -14.2152   -6.2529   57.7968 H       1  ZINC000492313853    0.0800
     40 H40       -12.7781   -5.9207   56.8005 H       1  ZINC000492313853    0.0800
     41 H41       -14.7044   -3.7314   56.9969 H       1  ZINC000492313853    0.4000
     42 H42       -13.8262   -1.8130   57.9959 H       1  ZINC000492313853    0.4100
     43 H43       -12.9099   -1.5553   61.0090 H       1  ZINC000492313853    0.1800
     44 H44        -9.1692   -1.8819   62.4420 H       1  ZINC000492313853    0.1400
     45 H45        -8.5445   -1.0266   64.6628 H       1  ZINC000492313853    0.1400
     46 H46        -9.5009    1.0854   65.4855 H       1  ZINC000492313853    0.1400
     47 H47       -11.7166    1.5146   61.8683 H       1  ZINC000492313853    0.1400
     48 H48        -9.8463   -2.4020   57.0523 H       1  ZINC000492313853    0.0800
     49 H49       -11.2186   -1.4254   56.4770 H       1  ZINC000492313853    0.0800
     50 H50        -9.6835   -0.6353   56.9104 H       1  ZINC000492313853    0.1000
     51 H51       -15.0662   -7.9627   56.2938 H       1  ZINC000492313853    0.1600
@<TRIPOS>BOND
     1     1     2    1
     2     1    31    1
     3     1    32    1
     4     1    33    1
     5     2     3    1
     6     2     4    1
     7     3    34    1
     8     3    35    1
     9     3    36    1
    10     4    30   ar
    11     4     5   ar
    12     5     6   ar
    13     5    37    1
    14     6     7   ar
    15     6    38    1
    16     7     8    1
    17     7    29   ar
    18     8     9    1
    19     8    39    1
    20     8    40    1
    21     9    10   am
    22     9    41    1
    23    10    11    2
    24    10    12   am
    25    12    13    1
    26    12    42    1
    27    13    27    1
    28    13    14    2
    29    14    15    1
    30    14    43    1
    31    15    16    1
    32    15    26    2
    33    16    25   ar
    34    16    17   ar
    35    17    18   ar
    36    17    44    1
    37    18    19   ar
    38    18    45    1
    39    19    20   ar
    40    19    46    1
    41    20    21    1
    42    20    25   ar
    43    21    22    1
    44    21    23    1
    45    21    24    1
    46    25    47    1
    47    26    27    1
    48    27    28    1
    49    28    48    1
    50    28    49    1
    51    28    50    1
    52    29    30   ar
    53    29    51    1
@<TRIPOS>SUBSTRUCTURE
     1 ZINC000492313853        1 TEMP              0 ****  ****    0 ROOT


##########                                Name:    ZINC001220171460
##########                DOCK_Rotatable_Bonds:                  10
##########                         Heavy_Atoms:                  25
##########                    Molecular_Weight:             383.773
##########                DOCK_Rotatable_Bonds:                  10
##########                       Formal_Charge:           0.0199996
##########                     HBond_Acceptors:                  10
##########                        HBond_Donors:                   3
##########                         Heavy_Atoms:                  25
##########                          Grid_Score:          -30.738789
##########                     Grid_vdw_energy:          -26.789515
##########                      Grid_es_energy:           -3.949274
##########           Internal_energy_repulsive:           12.433183

@<TRIPOS>MOLECULE
ZINC001220171460
 43 44 1 0 0
SMALL
USER_CHARGES


@<TRIPOS>ATOM
      1 C1        -12.2533    0.1461   57.0051 C.3     1  ZINC001220171460    0.0200
      2 O2        -11.2364   -0.7910   57.3653 O.3     1  ZINC001220171460   -0.3100
      3 C3        -11.5949   -2.1022   57.4162 C.ar    1  ZINC001220171460    0.1000
      4 C4        -12.6366   -2.5672   56.6313 C.ar    1  ZINC001220171460   -0.1500
      5 C5        -13.0010   -3.9012   56.6834 C.ar    1  ZINC001220171460   -0.0600
      6 Cl6       -14.3069   -4.4819   55.6979 Cl      1  ZINC001220171460   -0.0400
      7 C7        -12.3254   -4.7742   57.5203 C.ar    1  ZINC001220171460    0.1000
      8 F8        -12.6838   -6.0759   57.5681 F       1  ZINC001220171460   -0.1200
      9 C9        -11.2834   -4.3150   58.3071 C.ar    1  ZINC001220171460   -0.1200
     10 C10       -10.9110   -2.9803   58.2538 C.ar    1  ZINC001220171460    0.1800
     11 N11        -9.8557   -2.5131   59.0500 N.am    1  ZINC001220171460   -0.6700
     12 C12       -10.0723   -2.2083   60.3449 C.2     1  ZINC001220171460    0.7100
     13 O13       -11.1828   -2.3386   60.8226 O.2     1  ZINC001220171460   -0.5700
     14 N14        -9.0579   -1.7593   61.1103 N.am    1  ZINC001220171460   -0.7400
     15 C15        -9.2937   -1.4263   62.5173 C.3     1  ZINC001220171460    0.1400
     16 C16       -10.0128   -0.0790   62.6090 C.3     1  ZINC001220171460   -0.1400
     17 C17       -10.3674    0.2116   64.0687 C.3     1  ZINC001220171460    0.0500
     18 H18       -10.4899   -0.7284   64.6068 H       1  ZINC001220171460    0.1000
     19 N19        -9.2893    0.9937   64.6883 N.3     1  ZINC001220171460   -0.6500
     20 C20        -8.4759    0.1554   65.5792 C.3     1  ZINC001220171460    0.0100
     21 C21        -7.9777    0.7851   66.8817 C.3     1  ZINC001220171460   -0.2000
     22 C22        -9.0934   -0.2614   66.9156 C.3     1  ZINC001220171460   -0.1600
     23 C23       -11.6732    1.0068   64.1277 C.3     1  ZINC001220171460    0.4600
     24 F24       -11.7022    1.7693   65.3003 F       1  ZINC001220171460   -0.1800
     25 F25       -11.7534    1.8549   63.0180 F       1  ZINC001220171460   -0.1800
     26 F26       -12.7580    0.1234   64.1189 F       1  ZINC001220171460   -0.1700
     27 H27       -12.6319   -0.0928   56.0112 H       1  ZINC001220171460    0.0600
     28 H28       -13.0684    0.0931   57.7268 H       1  ZINC001220171460    0.0600
     29 H29       -11.8353    1.1528   57.0023 H       1  ZINC001220171460    0.1100
     30 H30       -13.1652   -1.8885   55.9783 H       1  ZINC001220171460    0.1500
     31 H31       -10.7577   -4.9968   58.9592 H       1  ZINC001220171460    0.1800
     32 H32        -8.9698   -2.4092   58.6689 H       1  ZINC001220171460    0.4200
     33 H33        -8.1716   -1.6566   60.7295 H       1  ZINC001220171460    0.4000
     34 H34        -9.9108   -2.1994   62.9751 H       1  ZINC001220171460    0.0800
     35 H35        -8.3397   -1.3654   63.0411 H       1  ZINC001220171460    0.0700
     36 H36        -9.3603    0.7077   62.2302 H       1  ZINC001220171460    0.1000
     37 H37       -10.9249   -0.1127   62.0132 H       1  ZINC001220171460    0.1000
     38 H38        -8.7160    1.4381   63.9869 H       1  ZINC001220171460    0.3600
     39 H39        -7.8203   -0.5601   65.0828 H       1  ZINC001220171460    0.1200
     40 H40        -6.9942    0.4839   67.2422 H       1  ZINC001220171460    0.1000
     41 H41        -8.2536    1.8213   67.0774 H       1  ZINC001220171460    0.1000
     42 H42       -10.1031    0.0864   67.1337 H       1  ZINC001220171460    0.1000
     43 H43        -8.8437   -1.2509   67.2984 H       1  ZINC001220171460    0.1000
@<TRIPOS>BOND
     1     1     2    1
     2     1    27    1
     3     1    28    1
     4     1    29    1
     5     2     3    1
     6     3    10   ar
     7     3     4   ar
     8     4     5   ar
     9     4    30    1
    10     5     6    1
    11     5     7   ar
    12     7     8    1
    13     7     9   ar
    14     9    10   ar
    15     9    31    1
    16    10    11    1
    17    11    12   am
    18    11    32    1
    19    12    13    2
    20    12    14   am
    21    14    15    1
    22    14    33    1
    23    15    16    1
    24    15    34    1
    25    15    35    1
    26    16    17    1
    27    16    36    1
    28    16    37    1
    29    17    18    1
    30    17    19    1
    31    17    23    1
    32    19    20    1
    33    19    38    1
    34    20    22    1
    35    20    21    1
    36    20    39    1
    37    21    22    1
    38    21    40    1
    39    21    41    1
    40    22    42    1
    41    22    43    1
    42    23    24    1
    43    23    25    1
    44    23    26    1
@<TRIPOS>SUBSTRUCTURE
     1 ZINC001220171460        1 TEMP              0 ****  ****    0 ROOT


##########                                Name:    ZINC000847397179
##########                DOCK_Rotatable_Bonds:                   9
##########                         Heavy_Atoms:                  25
##########                    Molecular_Weight:             350.461
##########                DOCK_Rotatable_Bonds:                   9
##########                       Formal_Charge:          0.00999979
##########                     HBond_Acceptors:                   7
##########                        HBond_Donors:                   2
##########                         Heavy_Atoms:                  25
##########                          Grid_Score:          -30.735800
##########                     Grid_vdw_energy:          -29.941944
##########                      Grid_es_energy:           -0.793855
##########           Internal_energy_repulsive:           89.344696

@<TRIPOS>MOLECULE
ZINC000847397179
 55 56 1 0 0
SMALL
USER_CHARGES


@<TRIPOS>ATOM
      1 C1        -16.9180   -5.1079   53.5812 C.3     1  ZINC000847397179   -0.1500
      2 C2        -15.6242   -5.9244   53.5990 C.3     1  ZINC000847397179   -0.1000
      3 H3        -15.0214   -5.6690   52.7275 H       1  ZINC000847397179    0.0900
      4 C4        -15.9622   -7.4162   53.5658 C.3     1  ZINC000847397179   -0.0200
      5 C5        -16.7358   -7.7283   52.3108 C.2     1  ZINC000847397179    0.0100
      6 C6        -17.6627   -8.6953   52.1724 C.2     1  ZINC000847397179   -0.0500
      7 N7        -18.1122   -8.6312   50.8811 N.pl3   1  ZINC000847397179   -0.5700
      8 C8        -17.4440   -7.6265   50.2749 C.2     1  ZINC000847397179    0.1800
      9 N9        -16.6261   -7.0878   51.1374 N.2     1  ZINC000847397179   -0.4900
     10 C10       -14.8506   -5.6124   54.8540 C.2     1  ZINC000847397179    0.5200
     11 O11       -14.8389   -6.4049   55.7720 O.2     1  ZINC000847397179   -0.5300
     12 N12       -14.1715   -4.4527   54.9563 N.am    1  ZINC000847397179   -0.7400
     13 C13       -13.4208   -4.1486   56.1770 C.3     1  ZINC000847397179    0.1200
     14 C14       -14.1744   -3.0938   56.9897 C.3     1  ZINC000847397179    0.1500
     15 H15       -14.2090   -2.1583   56.4314 H       1  ZINC000847397179    0.0800
     16 C16       -15.6006   -3.5803   57.2655 C.3     1  ZINC000847397179   -0.1300
     17 C17       -16.3036   -2.5873   58.1939 C.3     1  ZINC000847397179   -0.1200
     18 C18       -15.5528   -2.5120   59.5254 C.3     1  ZINC000847397179   -0.1400
     19 C19       -14.1262   -2.0133   59.2753 C.3     1  ZINC000847397179    0.1100
     20 N20       -13.4894   -2.8774   58.2714 N.am    1  ZINC000847397179   -0.5900
     21 C21       -12.3025   -3.4638   58.5237 C.2     1  ZINC000847397179    0.6500
     22 O22       -11.7863   -4.1760   57.6854 O.2     1  ZINC000847397179   -0.5500
     23 O23       -11.6887   -3.2605   59.7046 O.3     1  ZINC000847397179   -0.3600
     24 C24       -10.5525   -2.3564   59.7100 C.3     1  ZINC000847397179    0.1400
     25 C25       -10.9206   -1.0702   58.9677 C.3     1  ZINC000847397179   -0.1800
     26 C26       -10.1743   -2.0213   61.1542 C.3     1  ZINC000847397179   -0.1400
     27 C27        -9.3654   -3.0251   59.0140 C.3     1  ZINC000847397179   -0.1800
     28 H28       -17.5209   -5.3633   54.4526 H       1  ZINC000847397179    0.0500
     29 H29       -16.6772   -4.0450   53.6048 H       1  ZINC000847397179    0.0500
     30 H30       -17.4776   -5.3336   52.6734 H       1  ZINC000847397179    0.1000
     31 H31       -15.0404   -7.9980   53.5786 H       1  ZINC000847397179    0.0800
     32 H32       -16.5650   -7.6717   54.4372 H       1  ZINC000847397179    0.0800
     33 H33       -17.9885   -9.3886   52.9337 H       1  ZINC000847397179    0.1800
     34 H34       -18.7851   -9.2011   50.4769 H       1  ZINC000847397179    0.4200
     35 H35       -17.5686   -7.3172   49.2476 H       1  ZINC000847397179    0.2100
     36 H36       -14.1799   -3.8194   54.2216 H       1  ZINC000847397179    0.3900
     37 H37       -13.3112   -5.0554   56.7716 H       1  ZINC000847397179    0.0800
     38 H38       -12.4350   -3.7667   55.9116 H       1  ZINC000847397179    0.1000
     39 H39       -16.1490   -3.6509   56.3261 H       1  ZINC000847397179    0.0800
     40 H40       -15.5651   -4.5605   57.7411 H       1  ZINC000847397179    0.0700
     41 H41       -16.3168   -1.6018   57.7284 H       1  ZINC000847397179    0.0700
     42 H42       -17.3266   -2.9185   58.3720 H       1  ZINC000847397179    0.0700
     43 H43       -16.0672   -1.8223   60.1946 H       1  ZINC000847397179    0.0800
     44 H44       -15.5177   -3.5022   59.9797 H       1  ZINC000847397179    0.0700
     45 H45       -14.1569   -0.9885   58.9055 H       1  ZINC000847397179    0.0700
     46 H46       -13.5574   -2.0520   60.2043 H       1  ZINC000847397179    0.0900
     47 H47       -11.7663   -0.5938   59.4635 H       1  ZINC000847397179    0.0600
     48 H48       -10.0676   -0.3915   58.9717 H       1  ZINC000847397179    0.0700
     49 H49       -11.1901   -1.3090   57.9388 H       1  ZINC000847397179    0.0900
     50 H50        -9.9120   -2.9376   61.6831 H       1  ZINC000847397179    0.0700
     51 H51        -9.3214   -1.3426   61.1582 H       1  ZINC000847397179    0.0800
     52 H52       -11.0200   -1.5449   61.6501 H       1  ZINC000847397179    0.0700
     53 H53        -9.6348   -3.2638   57.9850 H       1  ZINC000847397179    0.0900
     54 H54        -8.5124   -2.3464   59.0179 H       1  ZINC000847397179    0.0700
     55 H55        -9.1031   -3.9414   59.5428 H       1  ZINC000847397179    0.0600
@<TRIPOS>BOND
     1     1     2    1
     2     1    28    1
     3     1    29    1
     4     1    30    1
     5     2     3    1
     6     2     4    1
     7     2    10    1
     8     4     5    1
     9     4    31    1
    10     4    32    1
    11     5     9    1
    12     5     6    2
    13     6     7    1
    14     6    33    1
    15     7     8    1
    16     7    34    1
    17     8     9    2
    18     8    35    1
    19    10    11    2
    20    10    12   am
    21    12    13    1
    22    12    36    1
    23    13    14    1
    24    13    37    1
    25    13    38    1
    26    14    15    1
    27    14    20    1
    28    14    16    1
    29    16    17    1
    30    16    39    1
    31    16    40    1
    32    17    18    1
    33    17    41    1
    34    17    42    1
    35    18    19    1
    36    18    43    1
    37    18    44    1
    38    19    20    1
    39    19    45    1
    40    19    46    1
    41    20    21   am
    42    21    22    2
    43    21    23    1
    44    23    24    1
    45    24    25    1
    46    24    26    1
    47    24    27    1
    48    25    47    1
    49    25    48    1
    50    25    49    1
    51    26    50    1
    52    26    51    1
    53    26    52    1
    54    27    53    1
    55    27    54    1
    56    27    55    1
@<TRIPOS>SUBSTRUCTURE
     1 ZINC000847397179        1 TEMP              0 ****  ****    0 ROOT


##########                                Name:    ZINC000826435081
##########                DOCK_Rotatable_Bonds:                   7
##########                         Heavy_Atoms:                  28
##########                    Molecular_Weight:             388.361
##########                DOCK_Rotatable_Bonds:                   7
##########                       Formal_Charge:           0.0099996
##########                     HBond_Acceptors:                  12
##########                        HBond_Donors:                   3
##########                         Heavy_Atoms:                  28
##########                          Grid_Score:          -30.725845
##########                     Grid_vdw_energy:          -29.684690
##########                      Grid_es_energy:           -1.041155
##########           Internal_energy_repulsive:            8.129786

@<TRIPOS>MOLECULE
ZINC000826435081
 45 48 1 0 0
SMALL
USER_CHARGES


@<TRIPOS>ATOM
      1 O1         -8.3589   -0.2720   56.9627 O.2     1  ZINC000826435081   -0.5700
      2 C2         -9.3360    0.2586   57.4549 C.2     1  ZINC000826435081    0.7200
      3 N3         -9.9403   -0.2999   58.5222 N.am    1  ZINC000826435081   -0.7300
      4 C4         -9.4237   -1.5496   59.0857 C.3     1  ZINC000826435081    0.1500
      5 C5         -9.7636   -1.6161   60.5760 C.3     1  ZINC000826435081    0.0400
      6 H6         -9.3625   -2.5365   61.0004 H       1  ZINC000826435081    0.0800
      7 C7        -11.2842   -1.5897   60.7558 C.3     1  ZINC000826435081    0.0300
      8 O8        -11.5909   -1.5395   62.1524 O.3     1  ZINC000826435081   -0.3800
      9 C9        -11.0192   -0.4129   62.8240 C.3     1  ZINC000826435081    0.0200
     10 C10        -9.4985   -0.4393   62.6443 C.3     1  ZINC000826435081    0.0200
     11 O11        -9.1906   -0.4904   61.2479 O.3     1  ZINC000826435081   -0.3700
     12 N12        -9.8113    1.4083   56.9365 N.am    1  ZINC000826435081   -0.6400
     13 C13        -9.1831    1.9890   55.8268 C.2     1  ZINC000826435081    0.3300
     14 N14        -7.8970    2.2194   55.7039 N.2     1  ZINC000826435081   -0.2800
     15 N15        -7.6753    2.8080   54.4522 N.pl3   1  ZINC000826435081   -0.3300
     16 C16        -6.4365    3.2066   53.9378 C.ar    1  ZINC000826435081    0.2200
     17 C17        -5.8476    4.3838   54.3746 C.ar    1  ZINC000826435081   -0.1300
     18 C18        -4.6243    4.7770   53.8663 C.ar    1  ZINC000826435081   -0.0500
     19 C19        -3.9792    4.0018   52.9197 C.ar    1  ZINC000826435081   -0.1500
     20 C20        -4.5538    2.8253   52.4741 C.ar    1  ZINC000826435081    0.1500
     21 F21        -3.9203    2.0707   51.5498 F       1  ZINC000826435081   -0.1100
     22 C22        -5.7848    2.4161   52.9850 C.ar    1  ZINC000826435081   -0.0500
     23 C23        -6.4065    1.1551   52.5113 C.2     1  ZINC000826435081    0.2100
     24 N24        -7.4206    1.0422   51.6762 N.2     1  ZINC000826435081   -0.2800
     25 N25        -7.6619   -0.2137   51.5169 N.pl3   1  ZINC000826435081   -0.2300
     26 N26        -6.8336   -0.8998   52.2241 N.2     1  ZINC000826435081   -0.0500
     27 N27        -6.0428   -0.0917   52.8446 N.2     1  ZINC000826435081   -0.2300
     28 C28        -8.8749    2.9235   53.8262 C.2     1  ZINC000826435081    0.0700
     29 C29        -9.8205    2.4196   54.6514 C.2     1  ZINC000826435081   -0.2400
     30 H30       -10.7174    0.1256   58.9174 H       1  ZINC000826435081    0.4000
     31 H31        -9.8789   -2.3958   58.5711 H       1  ZINC000826435081    0.0800
     32 H32        -8.3417   -1.5860   58.9579 H       1  ZINC000826435081    0.0900
     33 H33       -11.6943   -0.7094   60.2609 H       1  ZINC000826435081    0.0700
     34 H34       -11.7183   -2.4894   60.3197 H       1  ZINC000826435081    0.1100
     35 H35       -11.4203    0.5070   62.3987 H       1  ZINC000826435081    0.0600
     36 H36       -11.2613   -0.4603   63.8858 H       1  ZINC000826435081    0.1100
     37 H37        -9.0644    0.4604   63.0804 H       1  ZINC000826435081    0.1100
     38 H38        -9.0884   -1.3196   63.1391 H       1  ZINC000826435081    0.0600
     39 H39       -10.5884    1.8337   57.3315 H       1  ZINC000826435081    0.4100
     40 H40        -6.3461    4.9942   55.1131 H       1  ZINC000826435081    0.1500
     41 H41        -4.1697    5.6946   54.2096 H       1  ZINC000826435081    0.1500
     42 H42        -3.0237    4.3166   52.5269 H       1  ZINC000826435081    0.1500
     43 H43        -8.3586   -0.5839   50.9526 H       1  ZINC000826435081    0.4800
     44 H44        -9.0432    3.3388   52.8435 H       1  ZINC000826435081    0.1800
     45 H45       -10.8793    2.3648   54.4461 H       1  ZINC000826435081    0.1800
@<TRIPOS>BOND
     1     1     2    2
     2     2     3   am
     3     2    12   am
     4     3     4    1
     5     3    30    1
     6     4     5    1
     7     4    31    1
     8     4    32    1
     9     5     6    1
    10     5    11    1
    11     5     7    1
    12     7     8    1
    13     7    33    1
    14     7    34    1
    15     8     9    1
    16     9    10    1
    17     9    35    1
    18     9    36    1
    19    10    11    1
    20    10    37    1
    21    10    38    1
    22    12    13    1
    23    12    39    1
    24    13    29    1
    25    13    14    2
    26    14    15    1
    27    15    16    1
    28    15    28    1
    29    16    22   ar
    30    16    17   ar
    31    17    18   ar
    32    17    40    1
    33    18    19   ar
    34    18    41    1
    35    19    20   ar
    36    19    42    1
    37    20    21    1
    38    20    22   ar
    39    22    23    1
    40    23    27    1
    41    23    24    2
    42    24    25    1
    43    25    26    1
    44    25    43    1
    45    26    27    2
    46    28    29    2
    47    28    44    1
    48    29    45    1
@<TRIPOS>SUBSTRUCTURE
     1 ZINC000826435081        1 TEMP              0 ****  ****    0 ROOT


##########                                Name:    ZINC000621594459
##########                DOCK_Rotatable_Bonds:                  10
##########                         Heavy_Atoms:                  25
##########                    Molecular_Weight:             389.497
##########                DOCK_Rotatable_Bonds:                  10
##########                       Formal_Charge:         -7.7486e-07
##########                     HBond_Acceptors:                  10
##########                        HBond_Donors:                   3
##########                         Heavy_Atoms:                  25
##########                          Grid_Score:          -30.723179
##########                     Grid_vdw_energy:          -29.582157
##########                      Grid_es_energy:           -1.141022
##########           Internal_energy_repulsive:           10.152008

@<TRIPOS>MOLECULE
ZINC000621594459
 48 49 1 0 0
SMALL
USER_CHARGES


@<TRIPOS>ATOM
      1 C1         -1.8556    3.7093   56.8954 C.3     1  ZINC000621594459   -0.1600
      2 C2         -2.7631    4.3364   55.8350 C.3     1  ZINC000621594459    0.1300
      3 C3         -3.9876    4.9547   56.5127 C.3     1  ZINC000621594459   -0.1800
      4 N4         -2.0256    5.3776   55.1150 N.am    1  ZINC000621594459   -1.1100
      5 S5         -2.3897    5.7069   53.5335 S.o2    1  ZINC000621594459    2.6200
      6 O6         -3.7777    6.0111   53.5494 O.2     1  ZINC000621594459   -0.9500
      7 O7         -1.4304    6.6822   53.1489 O.2     1  ZINC000621594459   -0.9400
      8 C8         -2.0907    4.1427   52.6650 C.3     1  ZINC000621594459   -0.6600
      9 C9         -2.3960    4.3196   51.1762 C.3     1  ZINC000621594459    0.1300
     10 N10        -2.1544    3.0563   50.4748 N.am    1  ZINC000621594459   -0.7200
     11 C11        -1.7610    3.0658   49.1858 C.2     1  ZINC000621594459    0.5600
     12 O12        -1.6050    4.1225   48.6057 O.2     1  ZINC000621594459   -0.5200
     13 C13        -1.5189    1.7909   48.4773 C.ar    1  ZINC000621594459   -0.1500
     14 C14        -1.6239    0.5786   49.1607 C.ar    1  ZINC000621594459   -0.0300
     15 C15        -1.3972   -0.6078   48.4935 C.ar    1  ZINC000621594459   -0.1400
     16 C16        -1.0660   -0.5971   47.1504 C.ar    1  ZINC000621594459    0.0100
     17 C17        -0.9597    0.6015   46.4672 C.ar    1  ZINC000621594459   -0.6800
     18 S18        -0.5367    0.6038   44.7567 S.o2    1  ZINC000621594459    2.7000
     19 O19        -1.1837   -0.5232   44.1817 O.2     1  ZINC000621594459   -0.9400
     20 O20        -0.7358    1.9333   44.2959 O.2     1  ZINC000621594459   -0.9500
     21 N21         1.0902    0.3120   44.6537 N.am    1  ZINC000621594459   -1.0900
     22 C22         2.0403    1.2273   45.2908 C.3     1  ZINC000621594459    0.0800
     23 C23         2.3078    1.0398   46.7855 C.3     1  ZINC000621594459   -0.1800
     24 C24         3.3744    0.6450   45.7621 C.3     1  ZINC000621594459   -0.1900
     25 C25        -1.1899    1.7942   47.1207 C.ar    1  ZINC000621594459    0.0400
     26 H26        -2.4044    2.9347   57.4311 H       1  ZINC000621594459    0.0700
     27 H27        -0.9833    3.2689   56.4126 H       1  ZINC000621594459    0.0700
     28 H28        -1.5329    4.4777   57.5978 H       1  ZINC000621594459    0.0600
     29 H29        -3.0859    3.5680   55.1325 H       1  ZINC000621594459    0.0900
     30 H30        -3.6648    5.7231   57.2151 H       1  ZINC000621594459    0.0700
     31 H31        -4.6340    5.4016   55.7573 H       1  ZINC000621594459    0.0600
     32 H32        -4.5363    4.1801   57.0484 H       1  ZINC000621594459    0.0700
     33 H33        -1.3240    5.8741   55.5648 H       1  ZINC000621594459    0.4200
     34 H34        -1.0478    3.8514   52.7899 H       1  ZINC000621594459    0.1400
     35 H35        -2.7364    3.3682   53.0787 H       1  ZINC000621594459    0.1400
     36 H36        -3.4389    4.6109   51.0513 H       1  ZINC000621594459    0.0900
     37 H37        -1.7503    5.0942   50.7624 H       1  ZINC000621594459    0.0900
     38 H38        -2.2776    2.2131   50.9380 H       1  ZINC000621594459    0.4000
     39 H39        -1.8817    0.5690   50.2094 H       1  ZINC000621594459    0.1300
     40 H40        -1.4781   -1.5466   49.0211 H       1  ZINC000621594459    0.1400
     41 H41        -0.8891   -1.5284   46.6329 H       1  ZINC000621594459    0.1500
     42 H42         1.4140   -0.4649   44.1715 H       1  ZINC000621594459    0.4200
     43 H43         2.0448    2.2456   44.9021 H       1  ZINC000621594459    0.1400
     44 H44         2.4882    1.9350   47.3807 H       1  ZINC000621594459    0.1100
     45 H45         1.7769    0.2356   47.2949 H       1  ZINC000621594459    0.1000
     46 H46         3.5451   -0.4191   45.5982 H       1  ZINC000621594459    0.1000
     47 H47         4.2565    1.2804   45.6839 H       1  ZINC000621594459    0.1000
     48 H48        -1.1071    2.7290   46.5863 H       1  ZINC000621594459    0.1600
@<TRIPOS>BOND
     1     1     2    1
     2     1    26    1
     3     1    27    1
     4     1    28    1
     5     2     3    1
     6     2     4    1
     7     2    29    1
     8     3    30    1
     9     3    31    1
    10     3    32    1
    11     4     5   am
    12     4    33    1
    13     5     6    2
    14     5     7    2
    15     5     8    1
    16     8     9    1
    17     8    34    1
    18     8    35    1
    19     9    10    1
    20     9    36    1
    21     9    37    1
    22    10    11   am
    23    10    38    1
    24    11    12    2
    25    11    13    1
    26    13    25   ar
    27    13    14   ar
    28    14    15   ar
    29    14    39    1
    30    15    16   ar
    31    15    40    1
    32    16    17   ar
    33    16    41    1
    34    17    18    1
    35    17    25   ar
    36    18    19    2
    37    18    20    2
    38    18    21   am
    39    21    22    1
    40    21    42    1
    41    22    24    1
    42    22    23    1
    43    22    43    1
    44    23    24    1
    45    23    44    1
    46    23    45    1
    47    24    46    1
    48    24    47    1
    49    25    48    1
@<TRIPOS>SUBSTRUCTURE
     1 ZINC000621594459        1 TEMP              0 ****  ****    0 ROOT


##########                                Name:    ZINC000467104849
##########                DOCK_Rotatable_Bonds:                   6
##########                         Heavy_Atoms:                  29
##########                    Molecular_Weight:             421.896
##########                DOCK_Rotatable_Bonds:                   6
##########                       Formal_Charge:           0.0200002
##########                     HBond_Acceptors:                   7
##########                        HBond_Donors:                   0
##########                         Heavy_Atoms:                  29
##########                          Grid_Score:          -30.721680
##########                     Grid_vdw_energy:          -30.084808
##########                      Grid_es_energy:           -0.636871
##########           Internal_energy_repulsive:           67.364204

@<TRIPOS>MOLECULE
ZINC000467104849
 54 56 1 0 0
SMALL
USER_CHARGES


@<TRIPOS>ATOM
      1 C1        -14.8843   -6.7561   56.9050 C.3     1  ZINC000467104849    0.0200
      2 O2        -15.2331   -5.6189   57.6970 O.3     1  ZINC000467104849   -0.3000
      3 C3        -14.4894   -4.4937   57.5229 C.ar    1  ZINC000467104849    0.1000
      4 C4        -13.4539   -4.4815   56.6029 C.ar    1  ZINC000467104849   -0.1700
      5 C5        -12.6989   -3.3365   56.4267 C.ar    1  ZINC000467104849   -0.1200
      6 C6        -12.9745   -2.2026   57.1673 C.ar    1  ZINC000467104849   -0.0800
      7 C7        -12.1483   -0.9576   56.9718 C.3     1  ZINC000467104849   -0.0400
      8 C8        -10.7670   -1.3408   56.4368 C.3     1  ZINC000467104849   -0.1300
      9 C9        -12.8453   -0.0351   55.9698 C.3     1  ZINC000467104849   -0.1600
     10 C10       -11.9959   -0.2436   58.2902 C.2     1  ZINC000467104849    0.5300
     11 O11       -12.2057    0.9487   58.3620 O.2     1  ZINC000467104849   -0.5300
     12 N12       -11.6265   -0.9302   59.3895 N.am    1  ZINC000467104849   -0.6100
     13 C13       -11.3665   -2.3772   59.3271 C.3     1  ZINC000467104849    0.0600
     14 C14       -10.0043   -2.6521   59.9741 C.3     1  ZINC000467104849    0.0500
     15 O15        -9.9716   -2.0567   61.2734 O.3     1  ZINC000467104849   -0.3700
     16 C16       -10.1033   -0.6331   61.2684 C.3     1  ZINC000467104849    0.1300
     17 H17        -9.3143   -0.1967   60.6559 H       1  ZINC000467104849    0.0800
     18 C18        -9.9925   -0.1123   62.6781 C.ar    1  ZINC000467104849   -0.0900
     19 C19       -10.3069    1.2050   62.9543 C.ar    1  ZINC000467104849   -0.0500
     20 C20       -10.2059    1.6846   64.2468 C.ar    1  ZINC000467104849   -0.1400
     21 C21        -9.7900    0.8450   65.2656 C.ar    1  ZINC000467104849    0.1200
     22 F22        -9.6913    1.3126   66.5292 F       1  ZINC000467104849   -0.1200
     23 C23        -9.4752   -0.4758   64.9882 C.ar    1  ZINC000467104849   -0.0800
     24 Cl24       -8.9533   -1.5308   66.2642 Cl      1  ZINC000467104849   -0.0400
     25 C25        -9.5818   -0.9541   63.6951 C.ar    1  ZINC000467104849   -0.0700
     26 C26       -11.4651   -0.2539   60.6864 C.3     1  ZINC000467104849    0.0900
     27 C27       -14.0071   -2.2078   58.0871 C.ar    1  ZINC000467104849   -0.1600
     28 C28       -14.7707   -3.3500   58.2647 C.ar    1  ZINC000467104849    0.1100
     29 O29       -15.7866   -3.3568   59.1688 O.3     1  ZINC000467104849   -0.3000
     30 C30       -16.0171   -2.1478   59.8949 C.3     1  ZINC000467104849    0.0200
     31 H31       -15.5542   -7.5828   57.1415 H       1  ZINC000467104849    0.1000
     32 H32       -14.9761   -6.5049   55.8483 H       1  ZINC000467104849    0.0600
     33 H33       -13.8566   -7.0480   57.1210 H       1  ZINC000467104849    0.0600
     34 H34       -13.2359   -5.3665   56.0235 H       1  ZINC000467104849    0.1400
     35 H35       -11.8918   -3.3283   55.7092 H       1  ZINC000467104849    0.1300
     36 H36       -10.8705   -1.7776   55.4435 H       1  ZINC000467104849    0.0700
     37 H37       -10.1400   -0.4511   56.3791 H       1  ZINC000467104849    0.0700
     38 H38       -10.3065   -2.0670   57.1068 H       1  ZINC000467104849    0.0700
     39 H39       -13.7904    0.3093   56.3895 H       1  ZINC000467104849    0.0700
     40 H40       -12.2065    0.8230   55.7606 H       1  ZINC000467104849    0.0700
     41 H41       -13.0354   -0.5804   55.0453 H       1  ZINC000467104849    0.0700
     42 H42       -12.1453   -2.9139   59.8691 H       1  ZINC000467104849    0.0800
     43 H43       -11.3513   -2.7030   58.2870 H       1  ZINC000467104849    0.1100
     44 H44        -9.8538   -3.7280   60.0628 H       1  ZINC000467104849    0.1100
     45 H45        -9.2149   -2.2230   59.3570 H       1  ZINC000467104849    0.0600
     46 H46       -10.6315    1.8603   62.1595 H       1  ZINC000467104849    0.1500
     47 H47       -10.4511    2.7141   64.4617 H       1  ZINC000467104849    0.1500
     48 H48        -9.3370   -1.9834   63.4783 H       1  ZINC000467104849    0.1500
     49 H49       -11.5173    0.8261   60.5479 H       1  ZINC000467104849    0.1100
     50 H50       -12.2563   -0.5763   61.3633 H       1  ZINC000467104849    0.0800
     51 H51       -14.2205   -1.3205   58.6645 H       1  ZINC000467104849    0.1400
     52 H52       -15.1226   -1.8880   60.4612 H       1  ZINC000467104849    0.0600
     53 H53       -16.2515   -1.3440   59.1970 H       1  ZINC000467104849    0.0600
     54 H54       -16.8528   -2.2893   60.5802 H       1  ZINC000467104849    0.1000
@<TRIPOS>BOND
     1     1     2    1
     2     1    31    1
     3     1    32    1
     4     1    33    1
     5     2     3    1
     6     3    28   ar
     7     3     4   ar
     8     4     5   ar
     9     4    34    1
    10     5     6   ar
    11     5    35    1
    12     6     7    1
    13     6    27   ar
    14     7     8    1
    15     7     9    1
    16     7    10    1
    17     8    36    1
    18     8    37    1
    19     8    38    1
    20     9    39    1
    21     9    40    1
    22     9    41    1
    23    10    11    2
    24    10    12   am
    25    12    26    1
    26    12    13    1
    27    13    14    1
    28    13    42    1
    29    13    43    1
    30    14    15    1
    31    14    44    1
    32    14    45    1
    33    15    16    1
    34    16    17    1
    35    16    18    1
    36    16    26    1
    37    18    25   ar
    38    18    19   ar
    39    19    20   ar
    40    19    46    1
    41    20    21   ar
    42    20    47    1
    43    21    22    1
    44    21    23   ar
    45    23    24    1
    46    23    25   ar
    47    25    48    1
    48    26    49    1
    49    26    50    1
    50    27    28   ar
    51    27    51    1
    52    28    29    1
    53    29    30    1
    54    30    52    1
    55    30    53    1
    56    30    54    1
@<TRIPOS>SUBSTRUCTURE
     1 ZINC000467104849        1 TEMP              0 ****  ****    0 ROOT


##########                                Name:    ZINC000787750060
##########                DOCK_Rotatable_Bonds:                   6
##########                         Heavy_Atoms:                  24
##########                    Molecular_Weight:             347.438
##########                DOCK_Rotatable_Bonds:                   6
##########                       Formal_Charge:           0.0200003
##########                     HBond_Acceptors:                   7
##########                        HBond_Donors:                   2
##########                         Heavy_Atoms:                  24
##########                          Grid_Score:          -30.719482
##########                     Grid_vdw_energy:          -29.284607
##########                      Grid_es_energy:           -1.434876
##########           Internal_energy_repulsive:            6.881235

@<TRIPOS>MOLECULE
ZINC000787750060
 45 47 1 0 0
SMALL
USER_CHARGES


@<TRIPOS>ATOM
      1 C1        -10.9278    3.1370   64.3742 C.3     1  ZINC000787750060   -0.1200
      2 C2        -10.6732    1.8973   63.5559 C.ar    1  ZINC000787750060   -0.0400
      3 C3        -11.1552    1.8170   62.2599 C.ar    1  ZINC000787750060   -0.1300
      4 C4        -10.9284    0.6881   61.5024 C.ar    1  ZINC000787750060   -0.0700
      5 C5        -10.2089   -0.3802   62.0428 C.ar    1  ZINC000787750060   -0.1700
      6 C6         -9.9620   -1.5914   61.2374 C.2     1  ZINC000787750060    0.5600
      7 O7        -10.5112   -2.6367   61.5272 O.2     1  ZINC000787750060   -0.5200
      8 N8         -9.1275   -1.5391   60.1803 N.am    1  ZINC000787750060   -0.7300
      9 C9         -8.8809   -2.7422   59.3816 C.3     1  ZINC000787750060    0.2100
     10 C10        -9.9837   -2.9068   58.3677 C.2     1  ZINC000787750060   -0.2800
     11 C11       -10.2431   -2.0823   57.3525 C.2     1  ZINC000787750060    0.0900
     12 N12       -11.2666   -2.4434   56.5990 N.2     1  ZINC000787750060   -0.5200
     13 C13       -11.8830   -3.5348   56.9317 C.2     1  ZINC000787750060    0.2300
     14 N14       -12.9731   -4.0670   56.2610 N.3     1  ZINC000787750060   -0.4500
     15 C15       -13.8736   -3.0038   55.7920 C.3     1  ZINC000787750060    0.0200
     16 C16       -15.0291   -3.6305   55.0074 C.3     1  ZINC000787750060    0.0600
     17 O17       -15.7010   -4.5825   55.8367 O.3     1  ZINC000787750060   -0.3800
     18 C18       -14.8537   -5.6325   56.3106 C.3     1  ZINC000787750060    0.0600
     19 C19       -13.6963   -5.0260   57.1086 C.3     1  ZINC000787750060    0.0300
     20 S20       -11.1500   -4.2260   58.3130 S.3     1  ZINC000787750060    0.1700
     21 C21        -9.7224   -0.2947   63.3547 C.ar    1  ZINC000787750060    0.1700
     22 O22        -9.0224   -1.3260   63.8903 O.3     1  ZINC000787750060   -0.4700
     23 C23        -9.9559    0.8505   64.1007 C.ar    1  ZINC000787750060   -0.1200
     24 C24        -9.4356    0.9486   65.5117 C.3     1  ZINC000787750060   -0.1200
     25 H25       -10.1174    3.8488   64.2172 H       1  ZINC000787750060    0.0800
     26 H26       -11.8716    3.5876   64.0672 H       1  ZINC000787750060    0.0700
     27 H27       -10.9784    2.8713   65.4301 H       1  ZINC000787750060    0.0800
     28 H28       -11.7116    2.6424   61.8411 H       1  ZINC000787750060    0.1300
     29 H29       -11.3066    0.6295   60.4925 H       1  ZINC000787750060    0.1300
     30 H30        -8.6902   -0.7049   59.9484 H       1  ZINC000787750060    0.4000
     31 H31        -7.9251   -2.6468   58.8664 H       1  ZINC000787750060    0.0900
     32 H32        -8.8558   -3.6138   60.0356 H       1  ZINC000787750060    0.0800
     33 H33        -9.6634   -1.1913   57.1614 H       1  ZINC000787750060    0.1800
     34 H34       -14.2691   -2.4578   56.6485 H       1  ZINC000787750060    0.0600
     35 H35       -13.3236   -2.3197   55.1458 H       1  ZINC000787750060    0.1000
     36 H36       -15.7296   -2.8514   54.7065 H       1  ZINC000787750060    0.1100
     37 H37       -14.6384   -4.1312   54.1215 H       1  ZINC000787750060    0.0700
     38 H38       -15.4272   -6.3013   56.9525 H       1  ZINC000787750060    0.1100
     39 H39       -14.4577   -6.1915   55.4628 H       1  ZINC000787750060    0.0600
     40 H40       -13.0169   -5.8182   57.4234 H       1  ZINC000787750060    0.1000
     41 H41       -14.0890   -4.5123   57.9861 H       1  ZINC000787750060    0.0700
     42 H42        -8.2923   -1.0509   64.4617 H       1  ZINC000787750060    0.4000
     43 H43        -8.4344    1.3796   65.5005 H       1  ZINC000787750060    0.0700
     44 H44       -10.0980    1.5836   66.0998 H       1  ZINC000787750060    0.0700
     45 H45        -9.3979   -0.0464   65.9550 H       1  ZINC000787750060    0.0800
@<TRIPOS>BOND
     1     1     2    1
     2     1    25    1
     3     1    26    1
     4     1    27    1
     5     2    23   ar
     6     2     3   ar
     7     3     4   ar
     8     3    28    1
     9     4     5   ar
    10     4    29    1
    11     5     6    1
    12     5    21   ar
    13     6     7    2
    14     6     8   am
    15     8     9    1
    16     8    30    1
    17     9    10    1
    18     9    31    1
    19     9    32    1
    20    10    20    1
    21    10    11    2
    22    11    12    1
    23    11    33    1
    24    12    13    2
    25    13    14    1
    26    13    20    1
    27    14    19    1
    28    14    15    1
    29    15    16    1
    30    15    34    1
    31    15    35    1
    32    16    17    1
    33    16    36    1
    34    16    37    1
    35    17    18    1
    36    18    19    1
    37    18    38    1
    38    18    39    1
    39    19    40    1
    40    19    41    1
    41    21    22    1
    42    21    23   ar
    43    22    42    1
    44    23    24    1
    45    24    43    1
    46    24    44    1
    47    24    45    1
@<TRIPOS>SUBSTRUCTURE
     1 ZINC000787750060        1 TEMP              0 ****  ****    0 ROOT


##########                                Name:    ZINC000859608860
##########                DOCK_Rotatable_Bonds:                   8
##########                         Heavy_Atoms:                  24
##########                    Molecular_Weight:             394.268
##########                DOCK_Rotatable_Bonds:                   8
##########                       Formal_Charge:          -0.0200003
##########                     HBond_Acceptors:                   6
##########                        HBond_Donors:                   1
##########                         Heavy_Atoms:                  24
##########                          Grid_Score:          -30.716406
##########                     Grid_vdw_energy:          -28.816950
##########                      Grid_es_energy:           -1.899456
##########           Internal_energy_repulsive:            9.396377

@<TRIPOS>MOLECULE
ZINC000859608860
 44 45 1 0 0
SMALL
USER_CHARGES


@<TRIPOS>ATOM
      1 C1         -7.0258    0.3866   52.1563 C.3     1  ZINC000859608860   -0.1400
      2 C2         -8.2174    1.1954   52.6729 C.3     1  ZINC000859608860   -0.0800
      3 C3         -8.3943    2.4486   51.8133 C.3     1  ZINC000859608860   -0.1400
      4 C4         -9.4847    0.3415   52.5966 C.3     1  ZINC000859608860   -0.1400
      5 C5         -7.9648    1.6046   54.1253 C.3     1  ZINC000859608860    0.1300
      6 N6         -6.6269    2.1900   54.2420 N.am    1  ZINC000859608860   -0.7300
      7 C7         -6.4813    3.5273   54.3243 C.2     1  ZINC000859608860    0.5100
      8 O8         -7.4577    4.2462   54.3002 O.2     1  ZINC000859608860   -0.5100
      9 C9         -5.1052    4.1294   54.4462 C.3     1  ZINC000859608860    0.0500
     10 O10        -4.3707    3.9119   53.2127 O.3     1  ZINC000859608860   -0.3100
     11 C11        -3.1602    4.4961   53.1100 C.2     1  ZINC000859608860    0.5600
     12 O12        -2.8014    5.3019   53.9464 O.2     1  ZINC000859608860   -0.5100
     13 C13        -2.2733    4.1585   51.9855 C.2     1  ZINC000859608860   -0.0400
     14 C14        -2.5949    3.3817   50.9098 C.2     1  ZINC000859608860    0.0500
     15 N15        -1.4896    3.3310   50.1178 N.pl3   1  ZINC000859608860   -0.4100
     16 C16        -1.3718    2.6405   48.9029 C.ar    1  ZINC000859608860    0.1400
     17 C17        -1.6558    1.2828   48.8445 C.ar    1  ZINC000859608860   -0.1200
     18 C18        -1.5396    0.6050   47.6467 C.ar    1  ZINC000859608860   -0.0600
     19 C19        -1.1404    1.2780   46.5056 C.ar    1  ZINC000859608860   -0.1000
     20 Br20       -0.9822    0.3469   44.8675 Br      1  ZINC000859608860   -0.0300
     21 C21        -0.8572    2.6311   46.5611 C.ar    1  ZINC000859608860   -0.0600
     22 C22        -0.9765    3.3145   47.7554 C.ar    1  ZINC000859608860   -0.1200
     23 C23        -0.5188    4.0723   50.7186 C.2     1  ZINC000859608860    0.2000
     24 N24        -0.9884    4.5681   51.8265 N.2     1  ZINC000859608860   -0.4300
     25 H25        -6.1229    0.9949   52.2105 H       1  ZINC000859608860    0.0500
     26 H26        -6.8998   -0.5062   52.7687 H       1  ZINC000859608860    0.0600
     27 H27        -7.2058    0.0950   51.1215 H       1  ZINC000859608860    0.0600
     28 H28        -8.5743    2.1570   50.7785 H       1  ZINC000859608860    0.0600
     29 H29        -9.2433    3.0247   52.1812 H       1  ZINC000859608860    0.0600
     30 H30        -7.4915    3.0569   51.8675 H       1  ZINC000859608860    0.0500
     31 H31        -9.3587   -0.5513   53.2091 H       1  ZINC000859608860    0.0600
     32 H32       -10.3336    0.9177   52.9647 H       1  ZINC000859608860    0.0600
     33 H33        -9.6647    0.0499   51.5619 H       1  ZINC000859608860    0.0600
     34 H34        -8.7104    2.3387   54.4309 H       1  ZINC000859608860    0.0700
     35 H35        -8.0346    0.7268   54.7675 H       1  ZINC000859608860    0.0700
     36 H36        -5.8459    1.6151   54.2601 H       1  ZINC000859608860    0.4000
     37 H37        -5.1921    5.1997   54.6335 H       1  ZINC000859608860    0.1000
     38 H38        -4.5742    3.6578   55.2732 H       1  ZINC000859608860    0.1000
     39 H39        -3.5435    2.9000   50.7236 H       1  ZINC000859608860    0.2000
     40 H40        -1.9671    0.7570   49.7351 H       1  ZINC000859608860    0.1400
     41 H41        -1.7600   -0.4512   47.6010 H       1  ZINC000859608860    0.1500
     42 H42        -0.5457    3.1542   45.6690 H       1  ZINC000859608860    0.1500
     43 H43        -0.7553    4.3707   47.7982 H       1  ZINC000859608860    0.1500
     44 H44         0.4791    4.2274   50.3356 H       1  ZINC000859608860    0.2200
@<TRIPOS>BOND
     1     1     2    1
     2     1    25    1
     3     1    26    1
     4     1    27    1
     5     2     3    1
     6     2     4    1
     7     2     5    1
     8     3    28    1
     9     3    29    1
    10     3    30    1
    11     4    31    1
    12     4    32    1
    13     4    33    1
    14     5     6    1
    15     5    34    1
    16     5    35    1
    17     6     7   am
    18     6    36    1
    19     7     8    2
    20     7     9    1
    21     9    10    1
    22     9    37    1
    23     9    38    1
    24    10    11    1
    25    11    12    2
    26    11    13    1
    27    13    24    1
    28    13    14    2
    29    14    15    1
    30    14    39    1
    31    15    16    1
    32    15    23    1
    33    16    22   ar
    34    16    17   ar
    35    17    18   ar
    36    17    40    1
    37    18    19   ar
    38    18    41    1
    39    19    20    1
    40    19    21   ar
    41    21    22   ar
    42    21    42    1
    43    22    43    1
    44    23    24    2
    45    23    44    1
@<TRIPOS>SUBSTRUCTURE
     1 ZINC000859608860        1 TEMP              0 ****  ****    0 ROOT


##########                                Name:    ZINC000433533595
##########                DOCK_Rotatable_Bonds:                  10
##########                         Heavy_Atoms:                  24
##########                    Molecular_Weight:             397.312
##########                DOCK_Rotatable_Bonds:                  10
##########                       Formal_Charge:          0.00999916
##########                     HBond_Acceptors:                   5
##########                        HBond_Donors:                   1
##########                         Heavy_Atoms:                  24
##########                          Grid_Score:          -30.707037
##########                     Grid_vdw_energy:          -26.502371
##########                      Grid_es_energy:           -4.204667
##########           Internal_energy_repulsive:           32.886360

@<TRIPOS>MOLECULE
ZINC000433533595
 49 50 1 0 0
SMALL
USER_CHARGES


@<TRIPOS>ATOM
      1 C1         -3.7550    4.2095   67.0978 C.3     1  ZINC000433533595   -0.1500
      2 C2         -4.8001    3.3940   67.8617 C.3     1  ZINC000433533595   -0.1200
      3 C3         -5.7801    2.7638   66.8700 C.3     1  ZINC000433533595   -0.1300
      4 C4         -6.8248    1.9480   67.6340 C.3     1  ZINC000433533595    0.1000
      5 N5         -7.7643    1.3462   66.6845 N.am    1  ZINC000433533595   -0.5500
      6 C6         -7.5148    0.1251   66.1716 C.2     1  ZINC000433533595    0.5100
      7 O7         -6.5118   -0.4759   66.4963 O.2     1  ZINC000433533595   -0.5100
      8 C8         -8.4725   -0.4882   65.2038 C.2     1  ZINC000433533595    0.5000
      9 O9         -9.0393   -1.5243   65.4848 O.2     1  ZINC000433533595   -0.4900
     10 N10        -8.7076    0.1085   64.0185 N.am    1  ZINC000433533595   -0.6300
     11 C11        -9.6047   -0.4659   63.1120 C.ar    1  ZINC000433533595    0.1200
     12 C12        -9.1300   -1.1895   62.0274 C.ar    1  ZINC000433533595   -0.0600
     13 C13       -10.0191   -1.7563   61.1326 C.ar    1  ZINC000433533595   -0.1100
     14 Br14       -9.3707   -2.7426   59.6553 Br      1  ZINC000433533595   -0.0400
     15 C15       -11.3818   -1.6039   61.3163 C.ar    1  ZINC000433533595   -0.0600
     16 C16       -11.8618   -0.8842   62.3950 C.ar    1  ZINC000433533595   -0.1900
     17 C17       -10.9782   -0.3180   63.2989 C.ar    1  ZINC000433533595    0.1300
     18 O18       -11.4492    0.3899   64.3600 O.3     1  ZINC000433533595   -0.3100
     19 C19       -12.5146    1.3078   64.1061 C.3     1  ZINC000433533595    0.0800
     20 C20       -12.9724    1.9351   65.4244 C.3     1  ZINC000433533595   -0.1500
     21 C21       -12.0261    2.4072   63.1608 C.3     1  ZINC000433533595   -0.1800
     22 C22        -8.9752    2.0719   66.2926 C.3     1  ZINC000433533595    0.0600
     23 C23        -9.7012    2.8718   67.3761 C.3     1  ZINC000433533595   -0.1900
     24 C24        -8.9118    3.6006   66.2868 C.3     1  ZINC000433533595   -0.1800
     25 H25        -4.2520    4.9953   66.5289 H       1  ZINC000433533595    0.0500
     26 H26        -3.0569    4.6584   67.8043 H       1  ZINC000433533595    0.0500
     27 H27        -3.2115    3.5555   66.4157 H       1  ZINC000433533595    0.0500
     28 H28        -4.3031    2.6082   68.4306 H       1  ZINC000433533595    0.0700
     29 H29        -5.3437    4.0480   68.5438 H       1  ZINC000433533595    0.0600
     30 H30        -6.2774    3.5496   66.3015 H       1  ZINC000433533595    0.0600
     31 H31        -5.2365    2.1103   66.1878 H       1  ZINC000433533595    0.0700
     32 H32        -6.3276    1.1611   68.2013 H       1  ZINC000433533595    0.1100
     33 H33        -7.3672    2.6012   68.3174 H       1  ZINC000433533595    0.0800
     34 H34        -8.2546    0.9364   63.7940 H       1  ZINC000433533595    0.4300
     35 H35        -8.0666   -1.3095   61.8817 H       1  ZINC000433533595    0.1600
     36 H36       -12.0726   -2.0481   60.6148 H       1  ZINC000433533595    0.1400
     37 H37       -12.9263   -0.7672   62.5352 H       1  ZINC000433533595    0.1500
     38 H38       -13.3490    0.7779   63.6467 H       1  ZINC000433533595    0.0800
     39 H39       -12.1380    2.4649   65.8837 H       1  ZINC000433533595    0.0700
     40 H40       -13.7851    2.6352   65.2307 H       1  ZINC000433533595    0.0800
     41 H41       -13.3204    1.1518   66.0979 H       1  ZINC000433533595    0.0700
     42 H42       -11.1916    2.9371   63.6201 H       1  ZINC000433533595    0.0700
     43 H43       -11.6999    1.9603   62.2216 H       1  ZINC000433533595    0.0600
     44 H44       -12.8387    3.1073   62.9671 H       1  ZINC000433533595    0.0800
     45 H45        -9.5851    1.5906   65.5282 H       1  ZINC000433533595    0.1400
     46 H46       -10.7890    2.9166   67.3248 H       1  ZINC000433533595    0.0900
     47 H47        -9.2779    2.8581   68.3805 H       1  ZINC000433533595    0.1400
     48 H48        -7.9693    4.0663   66.5745 H       1  ZINC000433533595    0.1000
     49 H49        -9.4804    4.1249   65.5188 H       1  ZINC000433533595    0.1000
@<TRIPOS>BOND
     1     1     2    1
     2     1    25    1
     3     1    26    1
     4     1    27    1
     5     2     3    1
     6     2    28    1
     7     2    29    1
     8     3     4    1
     9     3    30    1
    10     3    31    1
    11     4     5    1
    12     4    32    1
    13     4    33    1
    14     5     6   am
    15     5    22    1
    16     6     7    2
    17     6     8    1
    18     8     9    2
    19     8    10   am
    20    10    11    1
    21    10    34    1
    22    11    17   ar
    23    11    12   ar
    24    12    13   ar
    25    12    35    1
    26    13    14    1
    27    13    15   ar
    28    15    16   ar
    29    15    36    1
    30    16    17   ar
    31    16    37    1
    32    17    18    1
    33    18    19    1
    34    19    20    1
    35    19    21    1
    36    19    38    1
    37    20    39    1
    38    20    40    1
    39    20    41    1
    40    21    42    1
    41    21    43    1
    42    21    44    1
    43    22    24    1
    44    22    23    1
    45    22    45    1
    46    23    24    1
    47    23    46    1
    48    23    47    1
    49    24    48    1
    50    24    49    1
@<TRIPOS>SUBSTRUCTURE
     1 ZINC000433533595        1 TEMP              0 ****  ****    0 ROOT


##########                                Name:    ZINC001083519372
##########                DOCK_Rotatable_Bonds:                   7
##########                         Heavy_Atoms:                  27
##########                    Molecular_Weight:             370.411
##########                DOCK_Rotatable_Bonds:                   7
##########                       Formal_Charge:           0.0399996
##########                     HBond_Acceptors:                   9
##########                        HBond_Donors:                   2
##########                         Heavy_Atoms:                  27
##########                          Grid_Score:          -30.699532
##########                     Grid_vdw_energy:          -28.869732
##########                      Grid_es_energy:           -1.829799
##########           Internal_energy_repulsive:            7.724050

@<TRIPOS>MOLECULE
ZINC001083519372
 49 52 1 0 0
SMALL
USER_CHARGES


@<TRIPOS>ATOM
      1 C1         -7.0634    2.2227   54.9100 C.3     1  ZINC001083519372   -0.1500
      2 C2         -8.5357    1.9097   54.6360 C.3     1  ZINC001083519372   -0.0100
      3 C3         -9.2456    3.1770   54.1554 C.3     1  ZINC001083519372   -0.1500
      4 C4         -8.6339    0.8454   53.5737 C.2     1  ZINC001083519372   -0.0100
      5 C5         -9.6426   -0.0261   53.4080 C.2     1  ZINC001083519372   -0.0100
      6 C6        -10.8866   -0.1177   54.2537 C.3     1  ZINC001083519372    0.1300
      7 N7        -10.7188   -1.1763   55.2583 N.3     1  ZINC001083519372   -0.5000
      8 C8        -10.1239   -0.6354   56.5072 C.3     1  ZINC001083519372    0.0300
      9 C9        -10.5050   -1.6965   57.5699 C.3     1  ZINC001083519372    0.1500
     10 H10        -9.8213   -2.5446   57.5307 H       1  ZINC001083519372    0.1200
     11 N11       -10.5190   -1.1058   58.9104 N.am    1  ZINC001083519372   -0.6900
     12 C12       -10.2761   -1.8766   59.9890 C.2     1  ZINC001083519372    0.5600
     13 O13       -10.0439   -3.0619   59.8494 O.2     1  ZINC001083519372   -0.5100
     14 C14       -10.2919   -1.2823   61.3389 C.2     1  ZINC001083519372    0.1400
     15 C15        -9.1214   -1.0029   61.9914 C.2     1  ZINC001083519372   -0.1500
     16 C16        -9.1696   -0.4385   63.2731 C.2     1  ZINC001083519372    0.1800
     17 N17       -10.3220   -0.1801   63.8430 N.2     1  ZINC001083519372   -0.4400
     18 C18       -11.4761   -0.4456   63.2223 C.2     1  ZINC001083519372    0.2500
     19 C19       -12.8052   -0.2740   63.5942 C.2     1  ZINC001083519372   -0.2500
     20 C20       -13.5955   -0.7282   62.5514 C.2     1  ZINC001083519372    0.1000
     21 N21       -12.8192   -1.1598   61.5813 N.2     1  ZINC001083519372   -0.3100
     22 N22       -11.4838   -0.9934   61.9635 N.pl3   1  ZINC001083519372   -0.3100
     23 C23       -11.9281   -2.1208   57.1399 C.3     1  ZINC001083519372    0.0900
     24 H24       -12.0583   -3.1951   57.2708 H       1  ZINC001083519372    0.0800
     25 O25       -12.9082   -1.4073   57.8965 O.3     1  ZINC001083519372   -0.5600
     26 C26       -12.0256   -1.7483   55.6490 C.3     1  ZINC001083519372    0.0100
     27 N27        -9.3423   -0.8019   52.3514 N.2     1  ZINC001083519372   -0.4800
     28 C28        -8.1889   -0.4296   51.8742 C.2     1  ZINC001083519372    0.1700
     29 O29        -7.7290    0.5928   52.6076 O.3     1  ZINC001083519372   -0.2000
     30 H30        -6.5576    1.3198   55.2523 H       1  ZINC001083519372    0.0600
     31 H31        -6.5911    2.5786   53.9943 H       1  ZINC001083519372    0.0600
     32 H32        -6.9924    2.9924   55.6784 H       1  ZINC001083519372    0.0700
     33 H33        -9.0080    1.5538   55.5516 H       1  ZINC001083519372    0.1000
     34 H34        -8.7734    3.5330   53.2398 H       1  ZINC001083519372    0.0600
     35 H35       -10.2946    2.9541   53.9603 H       1  ZINC001083519372    0.0600
     36 H36        -9.1746    3.9469   54.9238 H       1  ZINC001083519372    0.0700
     37 H37       -11.0563    0.8352   54.7549 H       1  ZINC001083519372    0.0900
     38 H38       -11.7411   -0.3516   53.6187 H       1  ZINC001083519372    0.0600
     39 H39        -9.0408   -0.5557   56.4143 H       1  ZINC001083519372    0.1000
     40 H40       -10.5620    0.3315   56.7546 H       1  ZINC001083519372    0.0600
     41 H41       -10.7031   -0.1599   59.0218 H       1  ZINC001083519372    0.4300
     42 H42        -8.1715   -1.2154   61.5236 H       1  ZINC001083519372    0.1800
     43 H43        -8.2510   -0.2151   63.7955 H       1  ZINC001083519372    0.1900
     44 H44       -13.1575    0.1387   64.5280 H       1  ZINC001083519372    0.1700
     45 H45       -14.6753   -0.7281   62.5372 H       1  ZINC001083519372    0.2000
     46 H46       -12.7612   -1.4310   58.8520 H       1  ZINC001083519372    0.3900
     47 H47       -12.8133   -1.0094   55.5015 H       1  ZINC001083519372    0.0700
     48 H48       -12.2330   -2.6393   55.0564 H       1  ZINC001083519372    0.0900
     49 H49        -7.6880   -0.8698   51.0247 H       1  ZINC001083519372    0.2500
@<TRIPOS>BOND
     1     1     2    1
     2     1    30    1
     3     1    31    1
     4     1    32    1
     5     2     3    1
     6     2     4    1
     7     2    33    1
     8     3    34    1
     9     3    35    1
    10     3    36    1
    11     4    29    1
    12     4     5    2
    13     5     6    1
    14     5    27    1
    15     6     7    1
    16     6    37    1
    17     6    38    1
    18     7    26    1
    19     7     8    1
    20     8     9    1
    21     8    39    1
    22     8    40    1
    23     9    10    1
    24     9    11    1
    25     9    23    1
    26    11    12   am
    27    11    41    1
    28    12    13    2
    29    12    14    1
    30    14    22    1
    31    14    15    2
    32    15    16    1
    33    15    42    1
    34    16    17    2
    35    16    43    1
    36    17    18    1
    37    18    22    1
    38    18    19    2
    39    19    20    1
    40    19    44    1
    41    20    21    2
    42    20    45    1
    43    21    22    1
    44    23    24    1
    45    23    25    1
    46    23    26    1
    47    25    46    1
    48    26    47    1
    49    26    48    1
    50    27    28    2
    51    28    29    1
    52    28    49    1
@<TRIPOS>SUBSTRUCTURE
     1 ZINC001083519372        1 TEMP              0 ****  ****    0 ROOT


##########                                Name:    ZINC000065993627
##########                DOCK_Rotatable_Bonds:                   7
##########                         Heavy_Atoms:                  28
##########                    Molecular_Weight:             382.462
##########                DOCK_Rotatable_Bonds:                   7
##########                       Formal_Charge:          -0.0200002
##########                     HBond_Acceptors:                   7
##########                        HBond_Donors:                   2
##########                         Heavy_Atoms:                  28
##########                          Grid_Score:          -30.616533
##########                     Grid_vdw_energy:          -29.295910
##########                      Grid_es_energy:           -1.320623
##########           Internal_energy_repulsive:           38.069489

@<TRIPOS>MOLECULE
ZINC000065993627
 54 56 1 0 0
SMALL
USER_CHARGES


@<TRIPOS>ATOM
      1 C1        -11.5623    1.0647   55.4521 C.3     1  ZINC000065993627   -0.1200
      2 C2        -10.0870    1.2849   55.2378 C.ar    1  ZINC000065993627   -0.0700
      3 C3         -9.5739    1.3232   53.9568 C.ar    1  ZINC000065993627   -0.1800
      4 C4         -8.2140    1.5262   53.7592 C.ar    1  ZINC000065993627    0.2000
      5 N5         -7.6937    1.5654   52.4610 N.pl3   1  ZINC000065993627   -0.6400
      6 C6         -8.1749    2.5696   51.5090 C.3     1  ZINC000065993627    0.1000
      7 C7         -6.6677    0.6022   52.0537 C.3     1  ZINC000065993627    0.0900
      8 C8         -7.3711    1.6906   54.8503 C.ar    1  ZINC000065993627   -0.1800
      9 C9         -7.8849    1.6523   56.1316 C.ar    1  ZINC000065993627   -0.0800
     10 C10        -9.2448    1.4550   56.3286 C.ar    1  ZINC000065993627    0.1100
     11 N11        -9.7662    1.4166   57.6294 N.am    1  ZINC000065993627   -0.6800
     12 C12        -9.5266    0.3518   58.4202 C.2     1  ZINC000065993627    0.7000
     13 O13        -8.8582   -0.5754   58.0055 O.2     1  ZINC000065993627   -0.5700
     14 N14       -10.0279    0.3149   59.6707 N.am    1  ZINC000065993627   -0.7400
     15 C15        -9.7659   -0.8417   60.5310 C.3     1  ZINC000065993627    0.2100
     16 H16        -8.7509   -1.1997   60.3594 H       1  ZINC000065993627    0.1000
     17 C17       -10.7619   -1.9563   60.2043 C.3     1  ZINC000065993627   -0.1600
     18 C18        -9.9191   -0.4387   61.9750 C.ar    1  ZINC000065993627   -0.1200
     19 C19        -9.1900   -1.0887   62.9538 C.ar    1  ZINC000065993627   -0.0800
     20 C20        -9.3283   -0.7218   64.2782 C.ar    1  ZINC000065993627   -0.1500
     21 C21       -10.2005    0.3011   64.6262 C.ar    1  ZINC000065993627    0.1800
     22 N22       -10.3425    0.6757   65.9672 N.am    1  ZINC000065993627   -0.5700
     23 C23       -11.2328    1.7329   66.4704 C.3     1  ZINC000065993627    0.0600
     24 C24       -10.9940    1.7201   67.9926 C.3     1  ZINC000065993627    0.0400
     25 O25       -10.0045    0.6682   68.1856 O.3     1  ZINC000065993627   -0.3200
     26 C26        -9.6936    0.1258   67.0028 C.2     1  ZINC000065993627    0.6400
     27 O27        -8.8898   -0.7767   66.8780 O.2     1  ZINC000065993627   -0.5000
     28 C28       -10.9312    0.9520   63.6409 C.ar    1  ZINC000065993627   -0.1500
     29 C29       -10.7843    0.5841   62.3178 C.ar    1  ZINC000065993627   -0.0800
     30 H30       -12.0749    2.0266   55.4668 H       1  ZINC000065993627    0.0700
     31 H31       -11.9599    0.4534   54.6421 H       1  ZINC000065993627    0.0700
     32 H32       -11.7192    0.5550   56.4028 H       1  ZINC000065993627    0.0600
     33 H33       -10.2295    1.1949   53.1083 H       1  ZINC000065993627    0.1200
     34 H34        -7.5611    3.4670   51.5863 H       1  ZINC000065993627    0.0500
     35 H35        -8.1098    2.1711   50.4965 H       1  ZINC000065993627    0.0700
     36 H36        -9.2118    2.8178   51.7358 H       1  ZINC000065993627    0.0700
     37 H37        -6.5031   -0.1151   52.8577 H       1  ZINC000065993627    0.0800
     38 H38        -6.9988    0.0754   51.1588 H       1  ZINC000065993627    0.0500
     39 H39        -5.7378    1.1299   51.8415 H       1  ZINC000065993627    0.0500
     40 H40        -6.3137    1.8481   54.6970 H       1  ZINC000065993627    0.1300
     41 H41        -7.2293    1.7801   56.9803 H       1  ZINC000065993627    0.1500
     42 H42       -10.2993    2.1563   57.9603 H       1  ZINC000065993627    0.4000
     43 H43       -10.5621    1.0540   60.0012 H       1  ZINC000065993627    0.4000
     44 H44       -10.6511   -2.2478   59.1598 H       1  ZINC000065993627    0.0700
     45 H45       -10.5671   -2.8168   60.8443 H       1  ZINC000065993627    0.0700
     46 H46       -11.7771   -1.5983   60.3758 H       1  ZINC000065993627    0.0600
     47 H47        -8.5121   -1.8845   62.6825 H       1  ZINC000065993627    0.1300
     48 H48        -8.7589   -1.2300   65.0422 H       1  ZINC000065993627    0.1600
     49 H49       -10.9572    2.6990   66.0477 H       1  ZINC000065993627    0.1000
     50 H50       -12.2727    1.4975   66.2440 H       1  ZINC000065993627    0.1000
     51 H51       -10.6007    2.6805   68.3258 H       1  ZINC000065993627    0.1100
     52 H52       -11.9159    1.4793   68.5220 H       1  ZINC000065993627    0.1100
     53 H53       -11.6107    1.7476   63.9086 H       1  ZINC000065993627    0.1300
     54 H54       -11.3521    1.0901   61.5510 H       1  ZINC000065993627    0.1300
@<TRIPOS>BOND
     1     1     2    1
     2     1    30    1
     3     1    31    1
     4     1    32    1
     5     2    10   ar
     6     2     3   ar
     7     3     4   ar
     8     3    33    1
     9     4     5    1
    10     4     8   ar
    11     5     6    1
    12     5     7    1
    13     6    34    1
    14     6    35    1
    15     6    36    1
    16     7    37    1
    17     7    38    1
    18     7    39    1
    19     8     9   ar
    20     8    40    1
    21     9    10   ar
    22     9    41    1
    23    10    11    1
    24    11    12   am
    25    11    42    1
    26    12    13    2
    27    12    14   am
    28    14    15    1
    29    14    43    1
    30    15    16    1
    31    15    17    1
    32    15    18    1
    33    17    44    1
    34    17    45    1
    35    17    46    1
    36    18    29   ar
    37    18    19   ar
    38    19    20   ar
    39    19    47    1
    40    20    21   ar
    41    20    48    1
    42    21    22    1
    43    21    28   ar
    44    22    26   am
    45    22    23    1
    46    23    24    1
    47    23    49    1
    48    23    50    1
    49    24    25    1
    50    24    51    1
    51    24    52    1
    52    25    26    1
    53    26    27    2
    54    28    29   ar
    55    28    53    1
    56    29    54    1
@<TRIPOS>SUBSTRUCTURE
     1 ZINC000065993627        1 TEMP              0 ****  ****    0 ROOT


##########                                Name:    ZINC001058079801
##########                DOCK_Rotatable_Bonds:                   7
##########                         Heavy_Atoms:                  24
##########                    Molecular_Weight:             349.457
##########                DOCK_Rotatable_Bonds:                   7
##########                       Formal_Charge:           0.0200001
##########                     HBond_Acceptors:                   8
##########                        HBond_Donors:                   0
##########                         Heavy_Atoms:                  24
##########                          Grid_Score:          -30.615301
##########                     Grid_vdw_energy:          -29.955856
##########                      Grid_es_energy:           -0.659446
##########           Internal_energy_repulsive:           23.292679

@<TRIPOS>MOLECULE
ZINC001058079801
 47 49 1 0 0
SMALL
USER_CHARGES


@<TRIPOS>ATOM
      1 C1         -6.7484    1.2214   66.3441 C.3     1  ZINC001058079801   -0.1500
      2 C2         -7.6211    0.5064   67.3777 C.3     1  ZINC001058079801   -0.1200
      3 C3         -8.1874   -0.7769   66.7666 C.3     1  ZINC001058079801   -0.0300
      4 C4         -9.0196   -0.4330   65.5582 C.2     1  ZINC001058079801    0.2900
      5 N5         -9.6569    0.6990   65.4818 N.2     1  ZINC001058079801   -0.4800
      6 S6        -10.4549    0.6793   63.9815 S.3     1  ZINC001058079801    0.1900
      7 C7         -9.8732   -0.8803   63.5368 C.2     1  ZINC001058079801    0.2700
      8 N8        -10.1353   -1.5759   62.3704 N.3     1  ZINC001058079801   -0.4300
      9 C9         -9.0609   -1.3808   61.3885 C.3     1  ZINC001058079801    0.0700
     10 C10        -9.3106   -2.2759   60.1726 C.3     1  ZINC001058079801   -0.1300
     11 C11       -10.6649   -1.9202   59.5526 C.3     1  ZINC001058079801    0.1300
     12 N12       -10.9358   -2.8131   58.4231 N.am    1  ZINC001058079801   -0.6100
     13 C13       -11.4401   -4.1671   58.6643 C.3     1  ZINC001058079801    0.0700
     14 C14       -10.7211   -2.3886   57.1620 C.2     1  ZINC001058079801    0.5200
     15 O15       -10.9439   -3.1282   56.2270 O.2     1  ZINC001058079801   -0.5300
     16 C16       -10.2039   -0.9950   56.9139 C.3     1  ZINC001058079801   -0.0600
     17 C17       -11.3659   -0.0465   56.7687 C.2     1  ZINC001058079801   -0.1900
     18 C18       -11.4105    1.2713   57.0786 C.2     1  ZINC001058079801   -0.0400
     19 O19       -12.6477    1.6903   56.7777 O.3     1  ZINC001058079801    0.1000
     20 N20       -13.3258    0.7922   56.3350 N.2     1  ZINC001058079801   -0.3600
     21 C21       -12.6599   -0.3246   56.2717 C.2     1  ZINC001058079801    0.0000
     22 C22       -11.7603   -2.0853   60.6096 C.3     1  ZINC001058079801   -0.1200
     23 C23       -11.4396   -1.1957   61.8129 C.3     1  ZINC001058079801    0.0400
     24 N24        -9.1204   -1.2635   64.5464 N.2     1  ZINC001058079801   -0.5300
     25 H25        -6.3450    2.1357   66.7794 H       1  ZINC001058079801    0.0600
     26 H26        -5.9284    0.5679   66.0466 H       1  ZINC001058079801    0.0600
     27 H27        -7.3504    1.4700   65.4701 H       1  ZINC001058079801    0.0600
     28 H28        -7.0191    0.2577   68.2518 H       1  ZINC001058079801    0.0700
     29 H29        -8.4412    1.1599   67.6752 H       1  ZINC001058079801    0.0700
     30 H30        -7.3674   -1.4304   66.4690 H       1  ZINC001058079801    0.1000
     31 H31        -8.8092   -1.2863   67.5029 H       1  ZINC001058079801    0.0900
     32 H32        -9.0417   -0.3375   61.0737 H       1  ZINC001058079801    0.0600
     33 H33        -8.1041   -1.6412   61.8408 H       1  ZINC001058079801    0.1000
     34 H34        -8.5215   -2.1194   59.4372 H       1  ZINC001058079801    0.0800
     35 H35        -9.3163   -3.3203   60.4844 H       1  ZINC001058079801    0.0800
     36 H36       -10.6460   -0.8876   59.2043 H       1  ZINC001058079801    0.1000
     37 H37       -12.5299   -4.1519   58.6781 H       1  ZINC001058079801    0.0600
     38 H38       -11.0960   -4.8299   57.8703 H       1  ZINC001058079801    0.0800
     39 H39       -11.0697   -4.5272   59.6241 H       1  ZINC001058079801    0.0800
     40 H40        -9.5829   -0.6831   57.7536 H       1  ZINC001058079801    0.1100
     41 H41        -9.6104   -0.9851   55.9997 H       1  ZINC001058079801    0.1100
     42 H42       -10.6078    1.8669   57.4875 H       1  ZINC001058079801    0.2200
     43 H43       -13.0257   -1.2766   55.9164 H       1  ZINC001058079801    0.1900
     44 H44       -12.7213   -1.7925   60.1865 H       1  ZINC001058079801    0.0900
     45 H45       -11.8045   -3.1267   60.9284 H       1  ZINC001058079801    0.0800
     46 H46       -12.2103   -1.3217   62.5733 H       1  ZINC001058079801    0.1000
     47 H47       -11.4092   -0.1533   61.4960 H       1  ZINC001058079801    0.0700
@<TRIPOS>BOND
     1     1     2    1
     2     1    25    1
     3     1    26    1
     4     1    27    1
     5     2     3    1
     6     2    28    1
     7     2    29    1
     8     3     4    1
     9     3    30    1
    10     3    31    1
    11     4    24    1
    12     4     5    2
    13     5     6    1
    14     6     7    1
    15     7     8    1
    16     7    24    2
    17     8    23    1
    18     8     9    1
    19     9    10    1
    20     9    32    1
    21     9    33    1
    22    10    11    1
    23    10    34    1
    24    10    35    1
    25    11    12    1
    26    11    22    1
    27    11    36    1
    28    12    13    1
    29    12    14   am
    30    13    37    1
    31    13    38    1
    32    13    39    1
    33    14    15    2
    34    14    16    1
    35    16    17    1
    36    16    40    1
    37    16    41    1
    38    17    21    1
    39    17    18    2
    40    18    19    1
    41    18    42    1
    42    19    20    1
    43    20    21    2
    44    21    43    1
    45    22    23    1
    46    22    44    1
    47    22    45    1
    48    23    46    1
    49    23    47    1
@<TRIPOS>SUBSTRUCTURE
     1 ZINC001058079801        1 TEMP              0 ****  ****    0 ROOT


##########                                Name:    ZINC000587344575
##########                DOCK_Rotatable_Bonds:                   7
##########                         Heavy_Atoms:                  30
##########                    Molecular_Weight:             408.475
##########                DOCK_Rotatable_Bonds:                   7
##########                       Formal_Charge:          -0.0100002
##########                     HBond_Acceptors:                   7
##########                        HBond_Donors:                   2
##########                         Heavy_Atoms:                  30
##########                          Grid_Score:          -30.608875
##########                     Grid_vdw_energy:          -28.523575
##########                      Grid_es_energy:           -2.085299
##########           Internal_energy_repulsive:           14.999236

@<TRIPOS>MOLECULE
ZINC000587344575
 55 57 1 0 0
SMALL
USER_CHARGES


@<TRIPOS>ATOM
      1 C1        -13.5653    2.7842   53.7106 C.3     1  ZINC000587344575   -0.1200
      2 C2        -12.4732    1.7458   53.7186 C.ar    1  ZINC000587344575    0.0000
      3 C3        -11.7836    1.4800   54.8798 C.ar    1  ZINC000587344575   -0.1600
      4 C4        -10.7754    0.5210   54.8882 C.ar    1  ZINC000587344575    0.1800
      5 N5        -10.0791    0.2539   56.0664 N.am    1  ZINC000587344575   -0.6700
      6 C6        -10.4041   -0.8205   56.8124 C.2     1  ZINC000587344575    0.5200
      7 O7        -11.3021   -1.5549   56.4589 O.2     1  ZINC000587344575   -0.5000
      8 C8         -9.6516   -1.1093   58.0858 C.3     1  ZINC000587344575   -0.1200
      9 H9         -8.6020   -0.8373   57.9742 H       1  ZINC000587344575    0.1100
     10 C10        -9.7819   -2.6039   58.4588 C.3     1  ZINC000587344575   -0.1200
     11 C11        -9.9340   -2.5644   60.0002 C.3     1  ZINC000587344575    0.0400
     12 N12       -10.7663   -1.3555   60.2287 N.3     1  ZINC000587344575   -0.4800
     13 C13       -10.6353   -0.8994   61.5387 C.ar    1  ZINC000587344575    0.0700
     14 C14        -9.3728   -0.6339   62.0579 C.ar    1  ZINC000587344575   -0.1200
     15 C15        -9.2392   -0.1832   63.3525 C.ar    1  ZINC000587344575   -0.0700
     16 C16       -10.3739    0.0080   64.1457 C.ar    1  ZINC000587344575    0.0000
     17 C17       -10.2375    0.4769   65.4919 C.1     1  ZINC000587344575    0.2500
     18 N18       -10.1294    0.8488   66.5598 N.1     1  ZINC000587344575   -0.4000
     19 C19       -11.6428   -0.2591   63.6218 C.ar    1  ZINC000587344575   -0.1000
     20 C20       -11.7701   -0.7048   62.3241 C.ar    1  ZINC000587344575    0.1300
     21 F21       -12.9951   -0.9628   61.8161 F       1  ZINC000587344575   -0.1200
     22 C22       -10.2803   -0.3422   59.2638 C.3     1  ZINC000587344575    0.0500
     23 C23       -10.4608   -0.1722   53.7238 C.ar    1  ZINC000587344575   -0.1400
     24 C24       -11.1467    0.0887   52.5588 C.ar    1  ZINC000587344575   -0.0600
     25 C25       -12.1633    1.0474   52.5483 C.ar    1  ZINC000587344575   -0.1600
     26 C26       -12.9010    1.3294   51.3013 C.2     1  ZINC000587344575    0.5600
     27 O27       -14.0803    1.0464   51.2154 O.2     1  ZINC000587344575   -0.5300
     28 N28       -12.2673    1.9006   50.2580 N.am    1  ZINC000587344575   -0.7200
     29 C29       -12.9991    2.1789   49.0197 C.3     1  ZINC000587344575    0.1400
     30 C30       -12.1783    3.1282   48.1445 C.3     1  ZINC000587344575   -0.1600
     31 C31       -13.2407    0.8700   48.2649 C.3     1  ZINC000587344575   -0.1600
     32 H32       -14.5317    2.2961   53.8366 H       1  ZINC000587344575    0.0800
     33 H33       -13.4041    3.4873   54.5278 H       1  ZINC000587344575    0.0600
     34 H34       -13.5500    3.3203   52.7617 H       1  ZINC000587344575    0.1000
     35 H35       -12.0251    2.0166   55.7855 H       1  ZINC000587344575    0.1300
     36 H36        -9.3609    0.8413   56.3491 H       1  ZINC000587344575    0.4100
     37 H37       -10.6660   -3.0416   57.9951 H       1  ZINC000587344575    0.0900
     38 H38        -8.8841   -3.1522   58.1737 H       1  ZINC000587344575    0.0900
     39 H39       -10.4456   -3.4573   60.3593 H       1  ZINC000587344575    0.0900
     40 H40        -8.9611   -2.4579   60.4801 H       1  ZINC000587344575    0.0600
     41 H41        -8.4958   -0.7816   61.4451 H       1  ZINC000587344575    0.1400
     42 H42        -8.2581    0.0219   63.7546 H       1  ZINC000587344575    0.1400
     43 H43       -12.5217   -0.1123   64.2320 H       1  ZINC000587344575    0.1500
     44 H44        -9.5319    0.2930   59.7378 H       1  ZINC000587344575    0.0600
     45 H45       -11.1145    0.2633   58.9095 H       1  ZINC000587344575    0.1100
     46 H46        -9.6775   -0.9156   53.7336 H       1  ZINC000587344575    0.1400
     47 H47       -10.9020   -0.4498   51.6551 H       1  ZINC000587344575    0.1300
     48 H48       -11.3268    2.1275   50.3269 H       1  ZINC000587344575    0.4000
     49 H49       -13.9562    2.6420   49.2595 H       1  ZINC000587344575    0.0900
     50 H50       -11.2211    2.6651   47.9047 H       1  ZINC000587344575    0.0600
     51 H51       -12.7227    3.3352   47.2233 H       1  ZINC000587344575    0.0700
     52 H52       -12.0061    4.0607   48.6822 H       1  ZINC000587344575    0.0600
     53 H53       -12.2835    0.4069   48.0251 H       1  ZINC000587344575    0.0600
     54 H54       -13.8254    0.1937   48.8884 H       1  ZINC000587344575    0.0600
     55 H55       -13.7851    1.0771   47.3437 H       1  ZINC000587344575    0.0700
@<TRIPOS>BOND
     1     1     2    1
     2     1    32    1
     3     1    33    1
     4     1    34    1
     5     2    25   ar
     6     2     3   ar
     7     3     4   ar
     8     3    35    1
     9     4     5    1
    10     4    23   ar
    11     5     6   am
    12     5    36    1
    13     6     7    2
    14     6     8    1
    15     8     9    1
    16     8    22    1
    17     8    10    1
    18    10    11    1
    19    10    37    1
    20    10    38    1
    21    11    12    1
    22    11    39    1
    23    11    40    1
    24    12    13    1
    25    12    22    1
    26    13    20   ar
    27    13    14   ar
    28    14    15   ar
    29    14    41    1
    30    15    16   ar
    31    15    42    1
    32    16    17    1
    33    16    19   ar
    34    17    18    3
    35    19    20   ar
    36    19    43    1
    37    20    21    1
    38    22    44    1
    39    22    45    1
    40    23    24   ar
    41    23    46    1
    42    24    25   ar
    43    24    47    1
    44    25    26    1
    45    26    27    2
    46    26    28   am
    47    28    29    1
    48    28    48    1
    49    29    30    1
    50    29    31    1
    51    29    49    1
    52    30    50    1
    53    30    51    1
    54    30    52    1
    55    31    53    1
    56    31    54    1
    57    31    55    1
@<TRIPOS>SUBSTRUCTURE
     1 ZINC000587344575        1 TEMP              0 ****  ****    0 ROOT


##########                                Name:    ZINC000880838037
##########                DOCK_Rotatable_Bonds:                   9
##########                         Heavy_Atoms:                  24
##########                    Molecular_Weight:             365.477
##########                DOCK_Rotatable_Bonds:                   9
##########                       Formal_Charge:           0.0200001
##########                     HBond_Acceptors:                   8
##########                        HBond_Donors:                   3
##########                         Heavy_Atoms:                  24
##########                          Grid_Score:          -30.599476
##########                     Grid_vdw_energy:          -28.632256
##########                      Grid_es_energy:           -1.967220
##########           Internal_energy_repulsive:           10.523433

@<TRIPOS>MOLECULE
ZINC000880838037
 43 44 1 0 0
SMALL
USER_CHARGES


@<TRIPOS>ATOM
      1 C1        -10.1715    1.6040   66.5651 C.3     1  ZINC000880838037    0.0300
      2 O2        -10.8696    0.5217   65.9458 O.3     1  ZINC000880838037   -0.3100
      3 C3        -11.1978    0.6687   64.6353 C.ar    1  ZINC000880838037    0.1400
      4 C4        -12.3468    1.3612   64.2808 C.ar    1  ZINC000880838037   -0.2200
      5 C5        -12.6819    1.5114   62.9483 C.ar    1  ZINC000880838037   -0.0700
      6 C6        -11.8748    0.9724   61.9655 C.ar    1  ZINC000880838037   -0.1500
      7 C7        -10.7235    0.2777   62.3147 C.ar    1  ZINC000880838037    0.1800
      8 N8         -9.9058   -0.2683   61.3191 N.am    1  ZINC000880838037   -0.6700
      9 C9        -10.1694   -1.4957   60.8285 C.2     1  ZINC000880838037    0.5200
     10 O10       -11.1154   -2.1269   61.2501 O.2     1  ZINC000880838037   -0.4900
     11 C11        -9.2888   -2.0837   59.7563 C.3     1  ZINC000880838037   -0.0600
     12 C12       -10.1338   -2.4776   58.5723 C.2     1  ZINC000880838037    0.1000
     13 C13       -10.0114   -1.9011   57.3762 C.2     1  ZINC000880838037   -0.2600
     14 S14       -11.1757   -2.6493   56.2862 S.3     1  ZINC000880838037    0.1300
     15 C15       -11.7172   -3.6688   57.5473 C.2     1  ZINC000880838037    0.0100
     16 S16       -12.9882   -4.8793   57.3915 S.3     1  ZINC000880838037    0.1000
     17 C17       -13.7897   -4.3000   55.8755 C.3     1  ZINC000880838037   -0.1500
     18 H18       -13.0292   -4.0312   55.1424 H       1  ZINC000880838037    0.1200
     19 C19       -14.6508   -3.0751   56.1898 C.3     1  ZINC000880838037   -0.1500
     20 C20       -14.6603   -5.3962   55.3172 C.2     1  ZINC000880838037    0.5400
     21 N21       -15.1787   -6.3297   56.1395 N.am    1  ZINC000880838037   -0.8400
     22 O22       -14.8944   -5.4382   54.1280 O.2     1  ZINC000880838037   -0.5200
     23 N23       -11.0517   -3.4255   58.6343 N.2     1  ZINC000880838037   -0.4200
     24 C24       -10.3820    0.1316   63.6516 C.ar    1  ZINC000880838037   -0.1500
     25 C25        -9.1338   -0.6214   64.0340 C.3     1  ZINC000880838037   -0.1000
     26 H26       -10.7817    2.5058   66.5153 H       1  ZINC000880838037    0.0600
     27 H27        -9.9712    1.3578   67.6080 H       1  ZINC000880838037    0.1000
     28 H28        -9.2290    1.7737   66.0445 H       1  ZINC000880838037    0.0600
     29 H29       -12.9802    1.7831   65.0471 H       1  ZINC000880838037    0.1300
     30 H30       -13.5767    2.0508   62.6751 H       1  ZINC000880838037    0.1300
     31 H31       -12.1391    1.0909   60.9251 H       1  ZINC000880838037    0.1400
     32 H32        -9.1493    0.2366   60.9819 H       1  ZINC000880838037    0.4100
     33 H33        -8.5509   -1.3439   59.4460 H       1  ZINC000880838037    0.1200
     34 H34        -8.7786   -2.9639   60.1474 H       1  ZINC000880838037    0.1200
     35 H35        -9.3195   -1.1124   57.1203 H       1  ZINC000880838037    0.1800
     36 H36       -15.4113   -3.3440   56.9230 H       1  ZINC000880838037    0.0900
     37 H37       -14.0211   -2.2822   56.5937 H       1  ZINC000880838037    0.0800
     38 H38       -15.1334   -2.7263   55.2769 H       1  ZINC000880838037    0.0800
     39 H39       -15.7400   -7.0346   55.7804 H       1  ZINC000880838037    0.4000
     40 H40       -14.9904   -6.2968   57.0905 H       1  ZINC000880838037    0.4100
     41 H41        -8.2930    0.0704   64.0837 H       1  ZINC000880838037    0.0700
     42 H42        -9.2764   -1.0905   65.0075 H       1  ZINC000880838037    0.0700
     43 H43        -8.9294   -1.3888   63.2874 H       1  ZINC000880838037    0.0600
@<TRIPOS>BOND
     1     1     2    1
     2     1    26    1
     3     1    27    1
     4     1    28    1
     5     2     3    1
     6     3    24   ar
     7     3     4   ar
     8     4     5   ar
     9     4    29    1
    10     5     6   ar
    11     5    30    1
    12     6     7   ar
    13     6    31    1
    14     7     8    1
    15     7    24   ar
    16     8     9   am
    17     8    32    1
    18     9    10    2
    19     9    11    1
    20    11    12    1
    21    11    33    1
    22    11    34    1
    23    12    23    1
    24    12    13    2
    25    13    14    1
    26    13    35    1
    27    14    15    1
    28    15    16    1
    29    15    23    2
    30    16    17    1
    31    17    18    1
    32    17    19    1
    33    17    20    1
    34    19    36    1
    35    19    37    1
    36    19    38    1
    37    20    21   am
    38    20    22    2
    39    21    39    1
    40    21    40    1
    41    24    25    1
    42    25    41    1
    43    25    42    1
    44    25    43    1
@<TRIPOS>SUBSTRUCTURE
     1 ZINC000880838037        1 TEMP              0 ****  ****    0 ROOT


##########                                Name:    ZINC000912668252
##########                DOCK_Rotatable_Bonds:                  10
##########                         Heavy_Atoms:                  30
##########                    Molecular_Weight:             411.433
##########                DOCK_Rotatable_Bonds:                  10
##########                       Formal_Charge:           0.0199993
##########                     HBond_Acceptors:                   8
##########                        HBond_Donors:                   2
##########                         Heavy_Atoms:                  30
##########                          Grid_Score:          -30.596968
##########                     Grid_vdw_energy:          -29.790073
##########                      Grid_es_energy:           -0.806894
##########           Internal_energy_repulsive:           18.365282

@<TRIPOS>MOLECULE
ZINC000912668252
 52 54 1 0 0
SMALL
USER_CHARGES


@<TRIPOS>ATOM
      1 C1        -13.5175    1.8128   52.2082 C.3     1  ZINC000912668252   -0.1700
      2 C2        -12.1673    1.3579   51.6509 C.3     1  ZINC000912668252    0.1100
      3 N3        -11.0939    1.8181   52.5354 N.am    1  ZINC000912668252   -0.6100
      4 C4        -11.3342    2.9248   53.4647 C.3     1  ZINC000912668252    0.1000
      5 C5        -10.9899    4.2492   52.7803 C.3     1  ZINC000912668252   -0.1800
      6 C6         -9.8852    1.2231   52.4943 C.2     1  ZINC000912668252    0.5600
      7 O7         -9.6858    0.3047   51.7233 O.2     1  ZINC000912668252   -0.5300
      8 C8         -8.8019    1.6875   53.3870 C.ar    1  ZINC000912668252   -0.1100
      9 C9         -8.8160    1.3477   54.7407 C.ar    1  ZINC000912668252   -0.1100
     10 C10        -7.8033    1.7820   55.5718 C.ar    1  ZINC000912668252   -0.1000
     11 C11        -6.7729    2.5536   55.0683 C.ar    1  ZINC000912668252   -0.1200
     12 C12        -6.7497    2.8973   53.7218 C.ar    1  ZINC000912668252    0.1400
     13 N13        -5.7039    3.6785   53.2169 N.am    1  ZINC000912668252   -0.6700
     14 C14        -4.7668    3.1198   52.4256 C.2     1  ZINC000912668252    0.5200
     15 O15        -4.8299    1.9401   52.1509 O.2     1  ZINC000912668252   -0.4900
     16 C16        -3.6407    3.9609   51.8820 C.3     1  ZINC000912668252    0.0500
     17 O17        -2.6490    3.1000   51.2624 O.3     1  ZINC000912668252   -0.3300
     18 C18        -2.0408    3.5665   50.1531 C.2     1  ZINC000912668252    0.5400
     19 O19        -1.7875    4.7512   50.0513 O.2     1  ZINC000912668252   -0.4800
     20 C20        -1.6841    2.6432   49.0677 C.2     1  ZINC000912668252    0.0400
     21 C21        -1.3301    3.0082   47.8068 C.2     1  ZINC000912668252   -0.0900
     22 C22        -1.0654    1.8265   47.0740 C.ar    1  ZINC000912668252   -0.1000
     23 C23        -0.6684    1.5829   45.7527 C.ar    1  ZINC000912668252   -0.0900
     24 C24        -0.4885    0.2982   45.3232 C.ar    1  ZINC000912668252    0.0700
     25 F25        -0.1057    0.0656   44.0486 F       1  ZINC000912668252   -0.1400
     26 C26        -0.6958   -0.7719   46.1871 C.ar    1  ZINC000912668252   -0.1100
     27 C27        -1.0867   -0.5565   47.4897 C.ar    1  ZINC000912668252   -0.1000
     28 C28        -1.2762    0.7434   47.9500 C.ar    1  ZINC000912668252    0.1100
     29 N29        -1.6490    1.2654   49.1669 N.pl3   1  ZINC000912668252   -0.5600
     30 C30        -7.7592    2.4617   52.8779 C.ar    1  ZINC000912668252   -0.0700
     31 H31       -14.3162    1.4704   51.5501 H       1  ZINC000912668252    0.0700
     32 H32       -13.6607    1.3911   53.2031 H       1  ZINC000912668252    0.0600
     33 H33       -13.5378    2.9010   52.2684 H       1  ZINC000912668252    0.0600
     34 H34       -12.1470    0.2697   51.5907 H       1  ZINC000912668252    0.0800
     35 H35       -12.0241    1.7796   50.6560 H       1  ZINC000912668252    0.0900
     36 H36       -12.3835    2.9302   53.7596 H       1  ZINC000912668252    0.0900
     37 H37       -10.7089    2.7993   54.3486 H       1  ZINC000912668252    0.0800
     38 H38        -9.9137    4.4148   52.8299 H       1  ZINC000912668252    0.0600
     39 H39       -11.3041    4.2117   51.7372 H       1  ZINC000912668252    0.0700
     40 H40       -11.5067    5.0648   53.2862 H       1  ZINC000912668252    0.0700
     41 H41        -9.6196    0.7452   55.1379 H       1  ZINC000912668252    0.1400
     42 H42        -7.8162    1.5185   56.6190 H       1  ZINC000912668252    0.1400
     43 H43        -5.9834    2.8908   55.7236 H       1  ZINC000912668252    0.1300
     44 H44        -5.6535    4.6219   53.4366 H       1  ZINC000912668252    0.4200
     45 H45        -4.0324    4.6566   51.1399 H       1  ZINC000912668252    0.1100
     46 H46        -3.1790    4.5198   52.6960 H       1  ZINC000912668252    0.1100
     47 H47        -1.2635    4.0187   47.4314 H       1  ZINC000912668252    0.1700
     48 H48        -0.5052    2.4081   45.0754 H       1  ZINC000912668252    0.1400
     49 H49        -0.5493   -1.7815   45.8327 H       1  ZINC000912668252    0.1400
     50 H50        -1.2459   -1.3939   48.1528 H       1  ZINC000912668252    0.1400
     51 H51        -1.8550    0.7510   49.9630 H       1  ZINC000912668252    0.4300
     52 H52        -7.7429    2.7277   51.8313 H       1  ZINC000912668252    0.1400
@<TRIPOS>BOND
     1     1     2    1
     2     1    31    1
     3     1    32    1
     4     1    33    1
     5     2     3    1
     6     2    34    1
     7     2    35    1
     8     3     4    1
     9     3     6   am
    10     4     5    1
    11     4    36    1
    12     4    37    1
    13     5    38    1
    14     5    39    1
    15     5    40    1
    16     6     7    2
    17     6     8    1
    18     8    30   ar
    19     8     9   ar
    20     9    10   ar
    21     9    41    1
    22    10    11   ar
    23    10    42    1
    24    11    12   ar
    25    11    43    1
    26    12    13    1
    27    12    30   ar
    28    13    14   am
    29    13    44    1
    30    14    15    2
    31    14    16    1
    32    16    17    1
    33    16    45    1
    34    16    46    1
    35    17    18    1
    36    18    19    2
    37    18    20    1
    38    20    29    1
    39    20    21    2
    40    21    22    1
    41    21    47    1
    42    22    28   ar
    43    22    23   ar
    44    23    24   ar
    45    23    48    1
    46    24    25    1
    47    24    26   ar
    48    26    27   ar
    49    26    49    1
    50    27    28   ar
    51    27    50    1
    52    28    29    1
    53    29    51    1
    54    30    52    1
@<TRIPOS>SUBSTRUCTURE
     1 ZINC000912668252        1 TEMP              0 ****  ****    0 ROOT


##########                                Name:    ZINC001015666108
##########                DOCK_Rotatable_Bonds:                   7
##########                         Heavy_Atoms:                  25
##########                    Molecular_Weight:             346.429
##########                DOCK_Rotatable_Bonds:                   7
##########                       Formal_Charge:          -0.0199997
##########                     HBond_Acceptors:                   7
##########                        HBond_Donors:                   1
##########                         Heavy_Atoms:                  25
##########                          Grid_Score:          -30.572136
##########                     Grid_vdw_energy:          -29.711758
##########                      Grid_es_energy:           -0.860379
##########           Internal_energy_repulsive:           20.976744

@<TRIPOS>MOLECULE
ZINC001015666108
 51 53 1 0 0
SMALL
USER_CHARGES


@<TRIPOS>ATOM
      1 C1        -10.1223   -3.4672   59.2088 C.3     1  ZINC001015666108   -0.1400
      2 C2         -9.3630   -2.1529   59.0163 C.3     1  ZINC001015666108   -0.0700
      3 C3         -9.8276   -1.1498   60.0404 C.2     1  ZINC001015666108   -0.0700
      4 C4        -10.9763   -0.4130   59.9969 C.2     1  ZINC001015666108   -0.0900
      5 C5        -11.9877   -0.4556   58.9357 C.2     1  ZINC001015666108    0.6100
      6 O6        -13.0709    0.0725   59.1059 O.2     1  ZINC001015666108   -0.5100
      7 N7        -11.7176   -1.0794   57.7720 N.am    1  ZINC001015666108   -0.7200
      8 C8        -12.7285   -1.1235   56.7126 C.3     1  ZINC001015666108    0.1400
      9 H9        -12.9523   -0.1160   56.3618 H       1  ZINC001015666108    0.1100
     10 C10       -12.2385   -2.0034   55.5397 C.3     1  ZINC001015666108   -0.1300
     11 C11       -12.9061   -3.3710   55.8301 C.3     1  ZINC001015666108    0.0300
     12 N12       -14.2393   -2.9919   56.3639 N.3     1  ZINC001015666108   -0.5100
     13 C13       -14.8316   -4.0947   57.1327 C.3     1  ZINC001015666108    0.1700
     14 H14       -14.1717   -4.3565   57.9597 H       1  ZINC001015666108    0.0900
     15 C15       -16.1913   -3.6599   57.6833 C.3     1  ZINC001015666108   -0.1500
     16 C16       -15.0124   -5.2921   56.2358 C.2     1  ZINC001015666108    0.1900
     17 N17       -15.3973   -5.2781   54.9824 N.2     1  ZINC001015666108   -0.4800
     18 C18       -15.4151   -6.5658   54.5946 C.2     1  ZINC001015666108    0.1800
     19 C19       -15.7922   -7.0811   53.2297 C.3     1  ZINC001015666108    0.0000
     20 C20       -17.2624   -7.5045   53.2326 C.3     1  ZINC001015666108   -0.1500
     21 C21       -15.5815   -5.9771   52.1916 C.3     1  ZINC001015666108   -0.1500
     22 N22       -15.0469   -7.2839   55.6131 N.2     1  ZINC001015666108   -0.3800
     23 O23       -14.8054   -6.5709   56.5643 O.3     1  ZINC001015666108    0.1000
     24 C24       -14.0094   -1.8083   57.2242 C.3     1  ZINC001015666108    0.0300
     25 O25       -11.0180    0.3611   61.1011 O.3     1  ZINC001015666108   -0.1700
     26 C26        -9.9267    0.1352   61.8438 C.2     1  ZINC001015666108    0.0000
     27 C27        -9.1662   -0.7962   61.2270 C.2     1  ZINC001015666108   -0.2200
     28 H28        -9.7863   -4.1928   58.4681 H       1  ZINC001015666108    0.0600
     29 H29        -9.9307   -3.8543   60.2095 H       1  ZINC001015666108    0.0600
     30 H30       -11.1909   -3.2908   59.0859 H       1  ZINC001015666108    0.0500
     31 H31        -8.2944   -2.3293   59.1392 H       1  ZINC001015666108    0.0900
     32 H32        -9.5546   -1.7659   58.0155 H       1  ZINC001015666108    0.0700
     33 H33       -10.8538   -1.4993   57.6358 H       1  ZINC001015666108    0.4000
     34 H34       -12.5816   -1.6014   54.5863 H       1  ZINC001015666108    0.0900
     35 H35       -11.1523   -2.0938   55.5529 H       1  ZINC001015666108    0.0800
     36 H36       -13.0097   -3.9510   54.9131 H       1  ZINC001015666108    0.0800
     37 H37       -12.3370   -3.9264   56.5756 H       1  ZINC001015666108    0.0500
     38 H38       -16.8513   -3.3980   56.8562 H       1  ZINC001015666108    0.0800
     39 H39       -16.6308   -4.4782   58.2537 H       1  ZINC001015666108    0.0700
     40 H40       -16.0606   -2.7939   58.3321 H       1  ZINC001015666108    0.0800
     41 H41       -15.1677   -7.9388   52.9798 H       1  ZINC001015666108    0.1000
     42 H42       -17.8870   -6.6469   53.4826 H       1  ZINC001015666108    0.0600
     43 H43       -17.5352   -7.8772   52.2453 H       1  ZINC001015666108    0.0700
     44 H44       -17.4126   -8.2910   53.9721 H       1  ZINC001015666108    0.0600
     45 H45       -16.2060   -5.1194   52.4415 H       1  ZINC001015666108    0.0600
     46 H46       -14.5341   -5.6755   52.1894 H       1  ZINC001015666108    0.0600
     47 H47       -15.8543   -6.3498   51.2043 H       1  ZINC001015666108    0.0700
     48 H48       -13.8744   -2.1221   58.2593 H       1  ZINC001015666108    0.0600
     49 H49       -14.8545   -1.1241   57.1481 H       1  ZINC001015666108    0.1000
     50 H50        -9.6946    0.6152   62.7830 H       1  ZINC001015666108    0.2100
     51 H51        -8.2236   -1.1897   61.5777 H       1  ZINC001015666108    0.1600
@<TRIPOS>BOND
     1     1     2    1
     2     1    28    1
     3     1    29    1
     4     1    30    1
     5     2     3    1
     6     2    31    1
     7     2    32    1
     8     3    27    1
     9     3     4    2
    10     4     5    1
    11     4    25    1
    12     5     6    2
    13     5     7   am
    14     7     8    1
    15     7    33    1
    16     8     9    1
    17     8    24    1
    18     8    10    1
    19    10    11    1
    20    10    34    1
    21    10    35    1
    22    11    12    1
    23    11    36    1
    24    11    37    1
    25    12    13    1
    26    12    24    1
    27    13    14    1
    28    13    15    1
    29    13    16    1
    30    15    38    1
    31    15    39    1
    32    15    40    1
    33    16    23    1
    34    16    17    2
    35    17    18    1
    36    18    19    1
    37    18    22    2
    38    19    20    1
    39    19    21    1
    40    19    41    1
    41    20    42    1
    42    20    43    1
    43    20    44    1
    44    21    45    1
    45    21    46    1
    46    21    47    1
    47    22    23    1
    48    24    48    1
    49    24    49    1
    50    25    26    1
    51    26    27    2
    52    26    50    1
    53    27    51    1
@<TRIPOS>SUBSTRUCTURE
     1 ZINC001015666108        1 TEMP              0 ****  ****    0 ROOT


##########                                Name:    ZINC000671418508
##########                DOCK_Rotatable_Bonds:                   9
##########                         Heavy_Atoms:                  28
##########                    Molecular_Weight:             405.884
##########                DOCK_Rotatable_Bonds:                   9
##########                       Formal_Charge:         -1.3411e-07
##########                     HBond_Acceptors:                   9
##########                        HBond_Donors:                   2
##########                         Heavy_Atoms:                  28
##########                          Grid_Score:          -30.569996
##########                     Grid_vdw_energy:          -26.515888
##########                      Grid_es_energy:           -4.054108
##########           Internal_energy_repulsive:           16.101374

@<TRIPOS>MOLECULE
ZINC000671418508
 52 54 1 0 0
SMALL
USER_CHARGES


@<TRIPOS>ATOM
      1 C1          2.8437    0.1599   60.0946 C.3     1  ZINC000671418508    0.1000
      2 N2          3.6233    0.7075   58.9816 N.pl3   1  ZINC000671418508   -0.3700
      3 C3          3.1951    1.6226   58.0869 C.2     1  ZINC000671418508    0.0800
      4 C4          4.2098    1.8621   57.2243 C.2     1  ZINC000671418508   -0.2700
      5 C5          4.1764    2.8182   56.0598 C.3     1  ZINC000671418508    0.2000
      6 N6          3.7477    2.1046   54.8543 N.am    1  ZINC000671418508   -0.6900
      7 C7          4.1425    2.5357   53.6398 C.2     1  ZINC000671418508    0.5100
      8 O8          4.8520    3.5155   53.5449 O.2     1  ZINC000671418508   -0.5100
      9 C9          3.7066    1.8067   52.4102 C.2     1  ZINC000671418508    0.5100
     10 O10         4.4666    1.0379   51.8590 O.2     1  ZINC000671418508   -0.5200
     11 N11         2.4691    2.0032   51.9133 N.am    1  ZINC000671418508   -0.5800
     12 C12         1.5343    2.9350   52.5623 C.3     1  ZINC000671418508    0.0800
     13 C13         0.9897    3.8963   51.5005 C.3     1  ZINC000671418508    0.0400
     14 N14         0.4231    3.1221   50.3881 N.3     1  ZINC000671418508   -0.5200
     15 C15        -0.2624    4.0005   49.4308 C.3     1  ZINC000671418508    0.1300
     16 H16         0.3811    4.8462   49.1884 H       1  ZINC000671418508    0.0600
     17 C17        -1.5648    4.5118   50.0499 C.3     1  ZINC000671418508    0.0900
     18 O18        -1.3909    5.8648   50.4754 O.3     1  ZINC000671418508   -0.5500
     19 C19        -0.5726    3.2289   48.1741 C.ar    1  ZINC000671418508   -0.0800
     20 C20        -0.0313    3.6285   46.9665 C.ar    1  ZINC000671418508   -0.0600
     21 C21        -0.3155    2.9212   45.8135 C.ar    1  ZINC000671418508   -0.1200
     22 C22        -1.1419    1.8129   45.8682 C.ar    1  ZINC000671418508   -0.0300
     23 Cl23       -1.4989    0.9237   44.4207 Cl      1  ZINC000671418508   -0.0700
     24 C24        -1.6834    1.4133   47.0771 C.ar    1  ZINC000671418508   -0.1200
     25 C25        -1.3939    2.1182   48.2302 C.ar    1  ZINC000671418508   -0.1100
     26 C26         1.4542    2.3174   49.7192 C.3     1  ZINC000671418508    0.0400
     27 C27         2.0199    1.2961   50.7045 C.3     1  ZINC000671418508    0.1100
     28 C28         5.2951    1.0663   57.6048 C.2     1  ZINC000671418508    0.0700
     29 N29         4.9467    0.3782   58.6618 N.2     1  ZINC000671418508   -0.2900
     30 H30         2.9862    0.7817   60.9785 H       1  ZINC000671418508    0.0800
     31 H31         1.7873    0.1464   59.8263 H       1  ZINC000671418508    0.0900
     32 H32         3.1777   -0.8556   60.3071 H       1  ZINC000671418508    0.0900
     33 H33         2.2176    2.0812   58.0634 H       1  ZINC000671418508    0.1800
     34 H34         3.4758    3.6256   56.2726 H       1  ZINC000671418508    0.0800
     35 H35         5.1719    3.2330   55.9017 H       1  ZINC000671418508    0.0800
     36 H36         3.1796    1.3221   54.9300 H       1  ZINC000671418508    0.4100
     37 H37         0.7109    2.3767   53.0076 H       1  ZINC000671418508    0.0800
     38 H38         2.0571    3.4999   53.3341 H       1  ZINC000671418508    0.1400
     39 H39         0.2135    4.5223   51.9406 H       1  ZINC000671418508    0.0900
     40 H40         1.7990    4.5259   51.1305 H       1  ZINC000671418508    0.0400
     41 H41        -2.3628    4.4637   49.3089 H       1  ZINC000671418508    0.0500
     42 H42        -1.8273    3.8921   50.9074 H       1  ZINC000671418508    0.0500
     43 H43        -2.0356    6.1556   51.1350 H       1  ZINC000671418508    0.3800
     44 H44         0.6135    4.4938   46.9238 H       1  ZINC000671418508    0.1400
     45 H45         0.1071    3.2337   44.8701 H       1  ZINC000671418508    0.1300
     46 H46        -2.3288    0.5485   47.1203 H       1  ZINC000671418508    0.1300
     47 H47        -1.8162    1.8062   49.1740 H       1  ZINC000671418508    0.1300
     48 H48         1.0147    1.7984   48.8674 H       1  ZINC000671418508    0.0900
     49 H49         2.2569    2.9690   49.3741 H       1  ZINC000671418508    0.0400
     50 H50         2.8621    0.7752   50.2488 H       1  ZINC000671418508    0.1000
     51 H51         1.2446    0.5787   50.9739 H       1  ZINC000671418508    0.0800
     52 H52         6.2565    1.0298   57.1140 H       1  ZINC000671418508    0.1900
@<TRIPOS>BOND
     1     1     2    1
     2     1    30    1
     3     1    31    1
     4     1    32    1
     5     2    29    1
     6     2     3    1
     7     3     4    2
     8     3    33    1
     9     4     5    1
    10     4    28    1
    11     5     6    1
    12     5    34    1
    13     5    35    1
    14     6     7   am
    15     6    36    1
    16     7     8    2
    17     7     9    1
    18     9    10    2
    19     9    11   am
    20    11    27    1
    21    11    12    1
    22    12    13    1
    23    12    37    1
    24    12    38    1
    25    13    14    1
    26    13    39    1
    27    13    40    1
    28    14    15    1
    29    14    26    1
    30    15    16    1
    31    15    17    1
    32    15    19    1
    33    17    18    1
    34    17    41    1
    35    17    42    1
    36    18    43    1
    37    19    25   ar
    38    19    20   ar
    39    20    21   ar
    40    20    44    1
    41    21    22   ar
    42    21    45    1
    43    22    23    1
    44    22    24   ar
    45    24    25   ar
    46    24    46    1
    47    25    47    1
    48    26    27    1
    49    26    48    1
    50    26    49    1
    51    27    50    1
    52    27    51    1
    53    28    29    2
    54    28    52    1
@<TRIPOS>SUBSTRUCTURE
     1 ZINC000671418508        1 TEMP              0 ****  ****    0 ROOT


##########                                Name:    ZINC000489403631
##########                DOCK_Rotatable_Bonds:                   7
##########                         Heavy_Atoms:                  28
##########                    Molecular_Weight:             381.391
##########                DOCK_Rotatable_Bonds:                   7
##########                       Formal_Charge:          -0.0300003
##########                     HBond_Acceptors:                   9
##########                        HBond_Donors:                   1
##########                         Heavy_Atoms:                  28
##########                          Grid_Score:          -30.568964
##########                     Grid_vdw_energy:          -29.980036
##########                      Grid_es_energy:           -0.588928
##########           Internal_energy_repulsive:           10.490364

@<TRIPOS>MOLECULE
ZINC000489403631
 47 49 1 0 0
SMALL
USER_CHARGES


@<TRIPOS>ATOM
      1 C1        -12.8907   -1.6627   59.3482 C.3     1  ZINC000489403631   -0.1100
      2 C2        -12.2086   -1.6615   58.0044 C.ar    1  ZINC000489403631   -0.0800
      3 C3        -11.6387   -0.5009   57.5207 C.ar    1  ZINC000489403631   -0.0900
      4 C4        -11.0102   -0.5000   56.2823 C.ar    1  ZINC000489403631    0.1200
      5 N5        -10.4314    0.6774   55.7911 N.am    1  ZINC000489403631   -0.6600
      6 C6         -9.1749    1.0102   56.1475 C.2     1  ZINC000489403631    0.5100
      7 O7         -8.5453    0.2903   56.8935 O.2     1  ZINC000489403631   -0.4600
      8 C8         -8.5523    2.2768   55.6191 C.3     1  ZINC000489403631    0.1700
      9 C9         -9.6550    3.2649   55.2336 C.3     1  ZINC000489403631   -0.1700
     10 C10        -7.6654    2.8984   56.6998 C.3     1  ZINC000489403631   -0.1700
     11 N11        -7.7403    1.9667   54.4398 N.pl3   1  ZINC000489403631   -0.3400
     12 C12        -7.9585    0.9601   53.5680 C.2     1  ZINC000489403631    0.1500
     13 C13        -6.9903    1.0145   52.6243 C.2     1  ZINC000489403631   -0.1900
     14 N14        -6.8449    0.0970   51.4719 N.pl3   1  ZINC000489403631    0.0700
     15 O15        -5.9072    0.2258   50.7054 O.2     1  ZINC000489403631   -0.1700
     16 O16        -7.6633   -0.7867   51.2901 O.2     1  ZINC000489403631   -0.1600
     17 C17        -6.1515    2.0912   52.9299 C.2     1  ZINC000489403631    0.1000
     18 N18        -6.6037    2.6664   54.0146 N.2     1  ZINC000489403631   -0.2200
     19 C19       -10.9554   -1.6664   55.5314 C.ar    1  ZINC000489403631   -0.1100
     20 C20       -11.5259   -2.8269   56.0163 C.ar    1  ZINC000489403631   -0.1700
     21 C21       -12.1485   -2.8285   57.2559 C.ar    1  ZINC000489403631    0.1000
     22 O22       -12.7100   -3.9713   57.7329 O.3     1  ZINC000489403631   -0.2500
     23 C23       -13.6389   -4.5939   56.9638 C.ar    1  ZINC000489403631    0.1400
     24 C24       -14.5679   -3.8592   56.2306 C.ar    1  ZINC000489403631   -0.2000
     25 C25       -15.4961   -4.5294   55.4608 C.ar    1  ZINC000489403631    0.1200
     26 N26       -15.5104   -5.8482   55.4142 N.ar    1  ZINC000489403631   -0.4900
     27 C27       -14.6471   -6.5788   56.0942 C.ar    1  ZINC000489403631    0.1200
     28 C28       -13.6839   -5.9837   56.8828 C.ar    1  ZINC000489403631   -0.1800
     29 H29       -12.1648   -1.9068   60.1238 H       1  ZINC000489403631    0.0700
     30 H30       -13.3122   -0.6764   59.5425 H       1  ZINC000489403631    0.0700
     31 H31       -13.6883   -2.4056   59.3502 H       1  ZINC000489403631    0.0700
     32 H32       -11.6821    0.4064   58.1051 H       1  ZINC000489403631    0.1500
     33 H33       -10.9350    1.2531   55.1946 H       1  ZINC000489403631    0.4100
     34 H34       -10.2592    3.4956   56.1111 H       1  ZINC000489403631    0.1000
     35 H35        -9.2047    4.1810   54.8515 H       1  ZINC000489403631    0.0900
     36 H36       -10.2869    2.8220   54.4637 H       1  ZINC000489403631    0.0800
     37 H37        -6.8798    2.1945   56.9745 H       1  ZINC000489403631    0.0800
     38 H38        -7.2151    3.8145   56.3176 H       1  ZINC000489403631    0.0900
     39 H39        -8.2696    3.1291   57.5772 H       1  ZINC000489403631    0.0900
     40 H40        -8.7619    0.2398   53.6152 H       1  ZINC000489403631    0.2000
     41 H41        -5.2835    2.3979   52.3653 H       1  ZINC000489403631    0.2100
     42 H42       -10.4671   -1.6663   54.5681 H       1  ZINC000489403631    0.1300
     43 H43       -11.4833   -3.7344   55.4323 H       1  ZINC000489403631    0.1300
     44 H44       -14.5619   -2.7798   56.2646 H       1  ZINC000489403631    0.1400
     45 H45       -16.2204   -3.9678   54.8894 H       1  ZINC000489403631    0.1600
     46 H46       -14.6924   -7.6559   56.0295 H       1  ZINC000489403631    0.1700
     47 H47       -12.9801   -6.5874   57.4366 H       1  ZINC000489403631    0.1500
@<TRIPOS>BOND
     1     1     2    1
     2     1    29    1
     3     1    30    1
     4     1    31    1
     5     2    21   ar
     6     2     3   ar
     7     3     4   ar
     8     3    32    1
     9     4     5    1
    10     4    19   ar
    11     5     6   am
    12     5    33    1
    13     6     7    2
    14     6     8    1
    15     8     9    1
    16     8    10    1
    17     8    11    1
    18     9    34    1
    19     9    35    1
    20     9    36    1
    21    10    37    1
    22    10    38    1
    23    10    39    1
    24    11    18    1
    25    11    12    1
    26    12    13    2
    27    12    40    1
    28    13    14    1
    29    13    17    1
    30    14    15    2
    31    14    16    2
    32    17    18    2
    33    17    41    1
    34    19    20   ar
    35    19    42    1
    36    20    21   ar
    37    20    43    1
    38    21    22    1
    39    22    23    1
    40    23    28   ar
    41    23    24   ar
    42    24    25   ar
    43    24    44    1
    44    25    26   ar
    45    25    45    1
    46    26    27   ar
    47    27    28   ar
    48    27    46    1
    49    28    47    1
@<TRIPOS>SUBSTRUCTURE
     1 ZINC000489403631        1 TEMP              0 ****  ****    0 ROOT


##########                                Name:    ZINC000015179664
##########                DOCK_Rotatable_Bonds:                   8
##########                         Heavy_Atoms:                  25
##########                    Molecular_Weight:             361.422
##########                DOCK_Rotatable_Bonds:                   8
##########                       Formal_Charge:        -2.23517e-07
##########                     HBond_Acceptors:                   8
##########                        HBond_Donors:                   1
##########                         Heavy_Atoms:                  25
##########                          Grid_Score:          -30.566637
##########                     Grid_vdw_energy:          -29.080130
##########                      Grid_es_energy:           -1.486508
##########           Internal_energy_repulsive:           24.219572

@<TRIPOS>MOLECULE
ZINC000015179664
 44 45 1 0 0
SMALL
USER_CHARGES


@<TRIPOS>ATOM
      1 C1          1.8248    1.8787   49.8225 C.3     1  ZINC000015179664   -0.1600
      2 C2          0.3323    1.7493   49.5112 C.3     1  ZINC000015179664    0.1800
      3 H3         -0.0398    0.8026   49.9027 H       1  ZINC000015179664    0.1200
      4 C4          0.1248    1.7924   48.0192 C.ar    1  ZINC000015179664   -0.1000
      5 C5          0.3566    2.9635   47.3227 C.ar    1  ZINC000015179664   -0.0700
      6 C6          0.1662    3.0029   45.9538 C.ar    1  ZINC000015179664   -0.1200
      7 C7         -0.2555    1.8711   45.2819 C.ar    1  ZINC000015179664   -0.0500
      8 C8         -0.4864    0.6993   45.9784 C.ar    1  ZINC000015179664   -0.0400
      9 N9         -0.9385   -0.5126   45.2589 N.pl3   1  ZINC000015179664    0.0300
     10 O10        -1.1070   -0.4776   44.0531 O.2     1  ZINC000015179664   -0.1600
     11 O11        -1.1419   -1.5448   45.8726 O.2     1  ZINC000015179664   -0.1500
     12 C12        -0.2920    0.6587   47.3463 C.ar    1  ZINC000015179664   -0.0400
     13 N13        -0.3948    2.8563   50.1375 N.am    1  ZINC000015179664   -0.6100
     14 C14         0.3429    3.9693   50.7403 C.3     1  ZINC000015179664    0.0600
     15 C15        -1.7423    2.8508   50.1589 C.2     1  ZINC000015179664    0.5200
     16 O16        -2.3530    1.9301   49.6586 O.2     1  ZINC000015179664   -0.5200
     17 C17        -2.4903    3.9886   50.8047 C.3     1  ZINC000015179664   -0.1500
     18 C18        -2.7925    3.6379   52.2629 C.3     1  ZINC000015179664    0.1300
     19 N19        -4.0168    2.8360   52.3288 N.am    1  ZINC000015179664   -0.7300
     20 C20        -5.2155    3.4434   52.4302 C.2     1  ZINC000015179664    0.5800
     21 O21        -5.2810    4.6574   52.4686 O.2     1  ZINC000015179664   -0.5300
     22 C22        -6.4457    2.6377   52.4947 C.2     1  ZINC000015179664   -0.1500
     23 C23        -6.4662    1.2866   52.3401 C.2     1  ZINC000015179664   -0.2200
     24 S24        -8.0554    0.6855   52.4750 S.3     1  ZINC000015179664    0.1900
     25 C25        -8.7186    2.2875   52.7470 C.2     1  ZINC000015179664   -0.2300
     26 C26        -7.7543    3.2000   52.7346 C.2     1  ZINC000015179664   -0.0900
     27 H27         2.3658    1.0550   49.3565 H       1  ZINC000015179664    0.0800
     28 H28         2.1969    2.8254   49.4309 H       1  ZINC000015179664    0.0600
     29 H29         1.9749    1.8475   50.9016 H       1  ZINC000015179664    0.0700
     30 H30         0.6861    3.8478   47.8477 H       1  ZINC000015179664    0.1500
     31 H31         0.3466    3.9182   45.4097 H       1  ZINC000015179664    0.1500
     32 H32        -0.4049    1.9021   44.2127 H       1  ZINC000015179664    0.1600
     33 H33        -0.4723   -0.2565   47.8905 H       1  ZINC000015179664    0.1600
     34 H34         0.5462    4.7242   49.9808 H       1  ZINC000015179664    0.0600
     35 H35        -0.2531    4.4095   51.5397 H       1  ZINC000015179664    0.0800
     36 H36         1.2844    3.6022   51.1489 H       1  ZINC000015179664    0.0800
     37 H37        -1.8811    4.8917   50.7670 H       1  ZINC000015179664    0.1000
     38 H38        -3.4251    4.1584   50.2706 H       1  ZINC000015179664    0.1000
     39 H39        -1.9619    3.0677   52.6791 H       1  ZINC000015179664    0.0800
     40 H40        -2.9273    4.5547   52.8367 H       1  ZINC000015179664    0.0800
     41 H41        -3.9645    1.8678   52.2994 H       1  ZINC000015179664    0.4000
     42 H42        -5.5936    0.6772   52.1566 H       1  ZINC000015179664    0.1700
     43 H43        -9.7653    2.5009   52.9062 H       1  ZINC000015179664    0.1700
     44 H44        -7.9311    4.2553   52.8813 H       1  ZINC000015179664    0.1600
@<TRIPOS>BOND
     1     1     2    1
     2     1    27    1
     3     1    28    1
     4     1    29    1
     5     2     3    1
     6     2     4    1
     7     2    13    1
     8     4    12   ar
     9     4     5   ar
    10     5     6   ar
    11     5    30    1
    12     6     7   ar
    13     6    31    1
    14     7     8   ar
    15     7    32    1
    16     8     9    1
    17     8    12   ar
    18     9    10    2
    19     9    11    2
    20    12    33    1
    21    13    14    1
    22    13    15   am
    23    14    34    1
    24    14    35    1
    25    14    36    1
    26    15    16    2
    27    15    17    1
    28    17    18    1
    29    17    37    1
    30    17    38    1
    31    18    19    1
    32    18    39    1
    33    18    40    1
    34    19    20   am
    35    19    41    1
    36    20    21    2
    37    20    22    1
    38    22    26    1
    39    22    23    2
    40    23    24    1
    41    23    42    1
    42    24    25    1
    43    25    26    2
    44    25    43    1
    45    26    44    1
@<TRIPOS>SUBSTRUCTURE
     1 ZINC000015179664        1 TEMP              0 ****  ****    0 ROOT


##########                                Name:    ZINC000866717058
##########                DOCK_Rotatable_Bonds:                   7
##########                         Heavy_Atoms:                  25
##########                    Molecular_Weight:             380.388
##########                DOCK_Rotatable_Bonds:                   7
##########                       Formal_Charge:                0.04
##########                     HBond_Acceptors:                  10
##########                        HBond_Donors:                   1
##########                         Heavy_Atoms:                  25
##########                          Grid_Score:          -30.562424
##########                     Grid_vdw_energy:          -29.573610
##########                      Grid_es_energy:           -0.988813
##########           Internal_energy_repulsive:            9.367044

@<TRIPOS>MOLECULE
ZINC000866717058
 44 45 1 0 0
SMALL
USER_CHARGES


@<TRIPOS>ATOM
      1 C1        -14.9186   -2.5860   54.9529 C.3     1  ZINC000866717058   -0.1100
      2 C2        -14.9971   -4.0847   55.0892 C.ar    1  ZINC000866717058    0.2400
      3 N3        -15.2772   -4.8214   54.0349 N.ar    1  ZINC000866717058   -0.5500
      4 C4        -15.3566   -6.1414   54.1071 C.ar    1  ZINC000866717058    0.3500
      5 O5        -15.6475   -6.8549   52.9924 O.3     1  ZINC000866717058   -0.2800
      6 C6        -16.6064   -6.2927   52.0943 C.3     1  ZINC000866717058    0.0500
      7 H7        -16.4797   -5.2107   52.0580 H       1  ZINC000866717058    0.1300
      8 C8        -16.3995   -6.8777   50.6958 C.3     1  ZINC000866717058   -0.1700
      9 C9        -18.0180   -6.6247   52.5824 C.3     1  ZINC000866717058    0.4600
     10 F10       -18.9228   -6.4808   51.5252 F       1  ZINC000866717058   -0.1700
     11 F11       -18.0520   -7.9432   53.0491 F       1  ZINC000866717058   -0.1700
     12 F12       -18.3699   -5.7538   53.6192 F       1  ZINC000866717058   -0.1700
     13 C13       -15.1452   -6.8062   55.3108 C.ar    1  ZINC000866717058   -0.1900
     14 C14       -14.8488   -6.0745   56.4426 C.ar    1  ZINC000866717058    0.0000
     15 C15       -14.7666   -4.6788   56.3308 C.ar    1  ZINC000866717058   -0.2300
     16 C16       -14.4521   -3.8500   57.5111 C.2     1  ZINC000866717058    0.5800
     17 O17       -15.3414   -3.5002   58.2628 O.2     1  ZINC000866717058   -0.5200
     18 N18       -13.1790   -3.4809   57.7556 N.am    1  ZINC000866717058   -0.7400
     19 C19       -12.8672   -2.6569   58.9261 C.3     1  ZINC000866717058    0.1400
     20 C20       -11.3673   -2.7330   59.2182 C.3     1  ZINC000866717058   -0.5700
     21 H21       -11.0302   -3.7694   59.2358 H       1  ZINC000866717058    0.1500
     22 C22       -10.5620   -1.9100   58.1798 C.3     1  ZINC000866717058   -0.1100
     23 C23        -9.1839   -1.6369   58.8077 C.3     1  ZINC000866717058   -0.1200
     24 C24        -9.3887   -1.1391   60.2523 C.3     1  ZINC000866717058   -0.5900
     25 S25       -10.9686   -1.8923   60.7973 S.o2    1  ZINC000866717058    2.3700
     26 O26       -11.9224   -0.8660   61.0345 O.2     1  ZINC000866717058   -0.9200
     27 O27       -10.7059   -2.8630   61.8012 O.2     1  ZINC000866717058   -0.9300
     28 H28       -13.8788   -2.2871   54.8203 H       1  ZINC000866717058    0.0900
     29 H29       -15.5009   -2.2688   54.0878 H       1  ZINC000866717058    0.0700
     30 H30       -15.3192   -2.1178   55.8521 H       1  ZINC000866717058    0.1100
     31 H31       -17.1310   -6.4490   50.0108 H       1  ZINC000866717058    0.0900
     32 H32       -15.3940   -6.6413   50.3481 H       1  ZINC000866717058    0.0900
     33 H33       -16.5264   -7.9597   50.7321 H       1  ZINC000866717058    0.0800
     34 H34       -15.2126   -7.8830   55.3591 H       1  ZINC000866717058    0.1600
     35 H35       -14.6804   -6.5645   57.3901 H       1  ZINC000866717058    0.1500
     36 H36       -12.4694   -3.7610   57.1566 H       1  ZINC000866717058    0.4000
     37 H37       -13.1465   -1.6223   58.7269 H       1  ZINC000866717058    0.1000
     38 H38       -13.4243   -3.0242   59.7879 H       1  ZINC000866717058    0.1000
     39 H39       -10.4460   -2.4818   57.2591 H       1  ZINC000866717058    0.1100
     40 H40       -11.0713   -0.9687   57.9735 H       1  ZINC000866717058    0.0900
     41 H41        -8.5967   -2.5552   58.8163 H       1  ZINC000866717058    0.0900
     42 H42        -8.6616   -0.8756   58.2283 H       1  ZINC000866717058    0.1000
     43 H43        -8.5713   -1.4779   60.8889 H       1  ZINC000866717058    0.1400
     44 H44        -9.4588   -0.0516   60.2716 H       1  ZINC000866717058    0.1400
@<TRIPOS>BOND
     1     1     2    1
     2     1    28    1
     3     1    29    1
     4     1    30    1
     5     2    15   ar
     6     2     3   ar
     7     3     4   ar
     8     4     5    1
     9     4    13   ar
    10     5     6    1
    11     6     7    1
    12     6     8    1
    13     6     9    1
    14     8    31    1
    15     8    32    1
    16     8    33    1
    17     9    10    1
    18     9    11    1
    19     9    12    1
    20    13    14   ar
    21    13    34    1
    22    14    15   ar
    23    14    35    1
    24    15    16    1
    25    16    17    2
    26    16    18   am
    27    18    19    1
    28    18    36    1
    29    19    20    1
    30    19    37    1
    31    19    38    1
    32    20    21    1
    33    20    25    1
    34    20    22    1
    35    22    23    1
    36    22    39    1
    37    22    40    1
    38    23    24    1
    39    23    41    1
    40    23    42    1
    41    24    25    1
    42    24    43    1
    43    24    44    1
    44    25    26    2
    45    25    27    2
@<TRIPOS>SUBSTRUCTURE
     1 ZINC000866717058        1 TEMP              0 ****  ****    0 ROOT


##########                                Name:    ZINC001105194920
##########                DOCK_Rotatable_Bonds:                   8
##########                         Heavy_Atoms:                  25
##########                    Molecular_Weight:             346.392
##########                DOCK_Rotatable_Bonds:                   8
##########                       Formal_Charge:          -0.0100007
##########                     HBond_Acceptors:                  10
##########                        HBond_Donors:                   3
##########                         Heavy_Atoms:                  25
##########                          Grid_Score:          -30.559589
##########                     Grid_vdw_energy:          -28.173716
##########                      Grid_es_energy:           -2.385873
##########           Internal_energy_repulsive:           15.639882

@<TRIPOS>MOLECULE
ZINC001105194920
 47 49 1 0 0
SMALL
USER_CHARGES


@<TRIPOS>ATOM
      1 C1          0.0605    4.5085   55.8301 C.3     1  ZINC001105194920    0.0300
      2 O2         -0.6025    4.3471   54.5745 O.3     1  ZINC001105194920   -0.3900
      3 C3         -1.9958    4.6631   54.6082 C.3     1  ZINC001105194920    0.0700
      4 C4         -2.5993    4.4560   53.2176 C.3     1  ZINC001105194920    0.0900
      5 H5         -2.4696    3.4165   52.9163 H       1  ZINC001105194920    0.0900
      6 C6         -4.0911    4.7942   53.2535 C.3     1  ZINC001105194920   -0.1800
      7 N7         -1.9213    5.3333   52.2538 N.3     1  ZINC001105194920   -0.6800
      8 C8         -2.4752    5.1603   50.9042 C.3     1  ZINC001105194920    0.1400
      9 C9         -2.2936    3.7298   50.4664 C.2     1  ZINC001105194920   -0.0200
     10 C10        -1.1791    3.1835   49.9264 C.2     1  ZINC001105194920   -0.0200
     11 N11        -1.4722    1.8835   49.6920 N.pl3   1  ZINC001105194920   -0.2800
     12 C12        -0.5657    0.8906   49.1101 C.3     1  ZINC001105194920    0.1000
     13 C13        -1.1740    0.1126   47.9292 C.3     1  ZINC001105194920    0.1100
     14 N14        -0.6050    1.1693   47.0703 N.am    1  ZINC001105194920   -0.6300
     15 C15        -0.9030    1.6567   45.8495 C.2     1  ZINC001105194920    0.6200
     16 O16        -1.8341    1.1926   45.2205 O.2     1  ZINC001105194920   -0.5400
     17 C17        -0.0980    2.7546   45.2759 C.ar    1  ZINC001105194920   -0.0600
     18 N18         0.0021    3.9153   45.9171 N.ar    1  ZINC001105194920   -0.3700
     19 C19         0.7208    4.8925   45.4026 C.ar    1  ZINC001105194920   -0.0200
     20 C20         1.3762    4.7183   44.1921 C.ar    1  ZINC001105194920    0.1500
     21 N21         1.2857    3.5715   43.5437 N.ar    1  ZINC001105194920   -0.5100
     22 C22         0.5700    2.5757   44.0532 C.ar    1  ZINC001105194920    0.4200
     23 N23         0.4729    1.3731   43.3778 N.pl3   1  ZINC001105194920   -0.8100
     24 C24         0.4212    1.4780   48.0849 C.3     1  ZINC001105194920    0.1100
     25 N25        -2.6843    1.6691   50.0683 N.2     1  ZINC001105194920   -0.0800
     26 N26        -3.2001    2.7489   50.5401 N.2     1  ZINC001105194920   -0.2600
     27 H27        -0.3998    3.8545   56.5707 H       1  ZINC001105194920    0.0400
     28 H28         1.1136    4.2492   55.7208 H       1  ZINC001105194920    0.0800
     29 H29        -0.0265    5.5449   56.1563 H       1  ZINC001105194920    0.0400
     30 H30        -2.4988    4.0120   55.3232 H       1  ZINC001105194920    0.0600
     31 H31        -2.1254    5.7025   54.9094 H       1  ZINC001105194920    0.0500
     32 H32        -4.2207    5.8337   53.5548 H       1  ZINC001105194920    0.0700
     33 H33        -4.5210    4.6467   52.2628 H       1  ZINC001105194920    0.0500
     34 H34        -4.5941    4.1433   53.9685 H       1  ZINC001105194920    0.0600
     35 H35        -1.9727    6.2981   52.5449 H       1  ZINC001105194920    0.3500
     36 H36        -3.5372    5.4056   50.9132 H       1  ZINC001105194920    0.0900
     37 H37        -1.9554    5.8213   50.2108 H       1  ZINC001105194920    0.0500
     38 H38        -0.2442    3.6845   49.7232 H       1  ZINC001105194920    0.1800
     39 H39        -0.0935    0.2554   49.8597 H       1  ZINC001105194920    0.1500
     40 H40        -0.7267   -0.8690   47.7728 H       1  ZINC001105194920    0.1200
     41 H41        -2.2637    0.0891   47.9333 H       1  ZINC001105194920    0.1000
     42 H42         0.7998    5.8340   45.9257 H       1  ZINC001105194920    0.1800
     43 H43         1.9631    5.5249   43.7779 H       1  ZINC001105194920    0.1800
     44 H44         0.9893    1.2276   42.5698 H       1  ZINC001105194920    0.4000
     45 H45        -0.1117    0.6748   43.7121 H       1  ZINC001105194920    0.4300
     46 H46         0.6051    2.5447   48.2134 H       1  ZINC001105194920    0.1100
     47 H47         1.3371    0.8975   47.9742 H       1  ZINC001105194920    0.1200
@<TRIPOS>BOND
     1     1     2    1
     2     1    27    1
     3     1    28    1
     4     1    29    1
     5     2     3    1
     6     3     4    1
     7     3    30    1
     8     3    31    1
     9     4     5    1
    10     4     6    1
    11     4     7    1
    12     6    32    1
    13     6    33    1
    14     6    34    1
    15     7     8    1
    16     7    35    1
    17     8     9    1
    18     8    36    1
    19     8    37    1
    20     9    26    1
    21     9    10    2
    22    10    11    1
    23    10    38    1
    24    11    12    1
    25    11    25    1
    26    12    24    1
    27    12    13    1
    28    12    39    1
    29    13    14    1
    30    13    40    1
    31    13    41    1
    32    14    15   am
    33    14    24    1
    34    15    16    2
    35    15    17    1
    36    17    22   ar
    37    17    18   ar
    38    18    19   ar
    39    19    20   ar
    40    19    42    1
    41    20    21   ar
    42    20    43    1
    43    21    22   ar
    44    22    23    1
    45    23    44    1
    46    23    45    1
    47    24    46    1
    48    24    47    1
    49    25    26    2
@<TRIPOS>SUBSTRUCTURE
     1 ZINC001105194920        1 TEMP              0 ****  ****    0 ROOT


##########                                Name:    ZINC000194290865
##########                DOCK_Rotatable_Bonds:                   7
##########                         Heavy_Atoms:                  28
##########                    Molecular_Weight:             387.479
##########                DOCK_Rotatable_Bonds:                   7
##########                       Formal_Charge:          -0.0400003
##########                     HBond_Acceptors:                   7
##########                        HBond_Donors:                   0
##########                         Heavy_Atoms:                  28
##########                          Grid_Score:          -30.543028
##########                     Grid_vdw_energy:          -30.234781
##########                      Grid_es_energy:           -0.308247
##########           Internal_energy_repulsive:           40.725548

@<TRIPOS>MOLECULE
ZINC000194290865
 57 59 1 0 0
SMALL
USER_CHARGES


@<TRIPOS>ATOM
      1 C1        -13.8958    0.1764   64.0424 C.3     1  ZINC000194290865   -0.1500
      2 C2        -15.4167    0.0455   64.1445 C.3     1  ZINC000194290865    0.0600
      3 O3        -15.9663   -0.2480   62.8330 O.3     1  ZINC000194290865   -0.3600
      4 C4        -15.7446   -1.4767   62.3404 C.2     1  ZINC000194290865    0.4700
      5 O5        -15.2506   -2.3284   63.0408 O.2     1  ZINC000194290865   -0.4900
      6 C6        -16.1117   -1.7942   60.9136 C.3     1  ZINC000194290865   -0.0600
      7 C7        -17.3495   -2.6924   60.8715 C.3     1  ZINC000194290865   -0.0700
      8 C8        -18.5486   -1.9360   61.4469 C.3     1  ZINC000194290865   -0.1700
      9 C9        -17.6434   -3.0882   59.4232 C.3     1  ZINC000194290865   -0.1600
     10 C10       -16.3641   -0.4907   60.1212 C.3     1  ZINC000194290865   -0.1200
     11 C11       -15.0085   -0.2524   59.4097 C.3     1  ZINC000194290865    0.0900
     12 N12       -14.5679   -1.6204   59.0514 N.am    1  ZINC000194290865   -0.6100
     13 C13       -13.9585   -2.0047   57.9124 C.2     1  ZINC000194290865    0.5800
     14 O14       -13.7169   -1.1868   57.0466 O.2     1  ZINC000194290865   -0.5000
     15 C15       -13.5835   -3.4230   57.7160 C.ar    1  ZINC000194290865    0.0100
     16 C16       -12.3595   -3.9253   58.1981 C.ar    1  ZINC000194290865   -0.2200
     17 C17       -12.0421   -5.2787   57.9901 C.ar    1  ZINC000194290865    0.3000
     18 N18       -12.8897   -6.0671   57.3470 N.ar    1  ZINC000194290865   -0.4700
     19 C19       -14.0403   -5.6258   56.8855 C.ar    1  ZINC000194290865    0.2100
     20 C20       -14.9566   -6.5797   56.1633 C.3     1  ZINC000194290865   -0.1100
     21 C21       -14.4333   -4.3077   57.0523 C.ar    1  ZINC000194290865   -0.1800
     22 O22       -10.8311   -5.4861   58.5454 O.3     1  ZINC000194290865   -0.0800
     23 N23       -10.3606   -4.2796   59.1113 N.2     1  ZINC000194290865   -0.2600
     24 C24       -11.2351   -3.3382   58.9257 C.2     1  ZINC000194290865    0.1600
     25 C25       -11.1136   -1.9053   59.3764 C.3     1  ZINC000194290865   -0.0400
     26 C26       -10.6549   -1.8666   60.8354 C.3     1  ZINC000194290865   -0.1500
     27 C27       -10.0899   -1.1802   58.5005 C.3     1  ZINC000194290865   -0.1400
     28 C28       -14.9314   -2.4757   60.1966 C.3     1  ZINC000194290865    0.1200
     29 H29       -13.4746   -0.7585   63.6729 H       1  ZINC000194290865    0.0700
     30 H30       -13.6460    0.9844   63.3547 H       1  ZINC000194290865    0.0700
     31 H31       -13.4832    0.3968   65.0270 H       1  ZINC000194290865    0.0800
     32 H32       -15.6664   -0.7624   64.8323 H       1  ZINC000194290865    0.0700
     33 H33       -15.8378    0.9805   64.5140 H       1  ZINC000194290865    0.0700
     34 H34       -17.1677   -3.5894   61.4635 H       1  ZINC000194290865    0.0900
     35 H35       -18.3392   -1.6540   62.4787 H       1  ZINC000194290865    0.0500
     36 H36       -18.7302   -1.0389   60.8548 H       1  ZINC000194290865    0.0800
     37 H37       -19.4304   -2.5759   61.4169 H       1  ZINC000194290865    0.0600
     38 H38       -16.7892   -3.6271   59.0132 H       1  ZINC000194290865    0.0500
     39 H39       -18.5252   -3.7282   59.3930 H       1  ZINC000194290865    0.0600
     40 H40       -17.8251   -2.1912   58.8311 H       1  ZINC000194290865    0.0800
     41 H41       -17.1630   -0.6302   59.3929 H       1  ZINC000194290865    0.0900
     42 H42       -16.5955    0.3329   60.7966 H       1  ZINC000194290865    0.0900
     43 H43       -15.1453    0.3544   58.5146 H       1  ZINC000194290865    0.0900
     44 H44       -14.2952    0.2162   60.0878 H       1  ZINC000194290865    0.0900
     45 H45       -15.6279   -7.0519   56.8805 H       1  ZINC000194290865    0.0900
     46 H46       -15.5414   -6.0323   55.4240 H       1  ZINC000194290865    0.0900
     47 H47       -14.3630   -7.3449   55.6629 H       1  ZINC000194290865    0.0900
     48 H48       -15.3825   -3.9673   56.6654 H       1  ZINC000194290865    0.1600
     49 H49       -12.0820   -1.4129   59.2868 H       1  ZINC000194290865    0.1100
     50 H50        -9.6865   -2.3590   60.9250 H       1  ZINC000194290865    0.0700
     51 H51       -10.5670   -0.8303   61.1614 H       1  ZINC000194290865    0.0700
     52 H52       -11.3842   -2.3832   61.4594 H       1  ZINC000194290865    0.0600
     53 H53       -10.4168   -1.2077   57.4610 H       1  ZINC000194290865    0.0600
     54 H54       -10.0021   -0.1438   58.8265 H       1  ZINC000194290865    0.0700
     55 H55        -9.1216   -1.6725   58.5900 H       1  ZINC000194290865    0.0600
     56 H56       -14.0847   -2.5644   60.8773 H       1  ZINC000194290865    0.0800
     57 H57       -15.2315   -3.4620   59.8427 H       1  ZINC000194290865    0.1000
@<TRIPOS>BOND
     1     1     2    1
     2     1    29    1
     3     1    30    1
     4     1    31    1
     5     2     3    1
     6     2    32    1
     7     2    33    1
     8     3     4    1
     9     4     5    2
    10     4     6    1
    11     6    28    1
    12     6     7    1
    13     6    10    1
    14     7     8    1
    15     7     9    1
    16     7    34    1
    17     8    35    1
    18     8    36    1
    19     8    37    1
    20     9    38    1
    21     9    39    1
    22     9    40    1
    23    10    11    1
    24    10    41    1
    25    10    42    1
    26    11    12    1
    27    11    43    1
    28    11    44    1
    29    12    13   am
    30    12    28    1
    31    13    14    2
    32    13    15    1
    33    15    21   ar
    34    15    16   ar
    35    16    24    1
    36    16    17   ar
    37    17    18   ar
    38    17    22    1
    39    18    19   ar
    40    19    20    1
    41    19    21   ar
    42    20    45    1
    43    20    46    1
    44    20    47    1
    45    21    48    1
    46    22    23    1
    47    23    24    2
    48    24    25    1
    49    25    26    1
    50    25    27    1
    51    25    49    1
    52    26    50    1
    53    26    51    1
    54    26    52    1
    55    27    53    1
    56    27    54    1
    57    27    55    1
    58    28    56    1
    59    28    57    1
@<TRIPOS>SUBSTRUCTURE
     1 ZINC000194290865        1 TEMP              0 ****  ****    0 ROOT


##########                                Name:    ZINC000051488227
##########                DOCK_Rotatable_Bonds:                   8
##########                         Heavy_Atoms:                  30
##########                    Molecular_Weight:             403.478
##########                DOCK_Rotatable_Bonds:                   8
##########                       Formal_Charge:           0.0199996
##########                     HBond_Acceptors:                   5
##########                        HBond_Donors:                   0
##########                         Heavy_Atoms:                  30
##########                          Grid_Score:          -30.540470
##########                     Grid_vdw_energy:          -29.751297
##########                      Grid_es_energy:           -0.789174
##########           Internal_energy_repulsive:           23.863562

@<TRIPOS>MOLECULE
ZINC000051488227
 55 58 1 0 0
SMALL
USER_CHARGES


@<TRIPOS>ATOM
      1 O1        -11.5245   -0.2410   58.4190 O.2     1  ZINC000051488227   -0.5000
      2 C2        -10.9926   -1.1726   57.8629 C.2     1  ZINC000051488227    0.4800
      3 O3        -10.2025   -0.9572   56.7994 O.3     1  ZINC000051488227   -0.3400
      4 C4         -9.2425    0.1275   56.9003 C.3     1  ZINC000051488227    0.1100
      5 C5         -9.1889    0.8741   55.5923 C.ar    1  ZINC000051488227   -0.1400
      6 C6        -10.3365    1.0251   54.8363 C.ar    1  ZINC000051488227   -0.0500
      7 C7        -10.2900    1.7089   53.6369 C.ar    1  ZINC000051488227   -0.1500
      8 C8         -9.0903    2.2450   53.1915 C.ar    1  ZINC000051488227    0.1500
      9 O9         -9.0421    2.9186   52.0122 O.3     1  ZINC000051488227   -0.3100
     10 C10       -10.2845    3.1468   51.3441 C.3     1  ZINC000051488227    0.1100
     11 C11       -10.0587    4.0480   50.1576 C.ar    1  ZINC000051488227    0.1200
     12 C12       -10.1468    5.4181   50.3141 C.ar    1  ZINC000051488227   -0.1500
     13 C13        -9.9368    6.2385   49.2160 C.ar    1  ZINC000051488227   -0.0700
     14 C14        -9.6449    5.6471   47.9967 C.ar    1  ZINC000051488227   -0.1700
     15 C15        -9.5734    4.2689   47.9165 C.ar    1  ZINC000051488227    0.1100
     16 N16        -9.7740    3.5201   48.9831 N.ar    1  ZINC000051488227   -0.4800
     17 C17        -7.9403    2.0926   53.9523 C.ar    1  ZINC000051488227   -0.2100
     18 C18        -7.9932    1.4119   55.1532 C.ar    1  ZINC000051488227   -0.0500
     19 C19       -11.2111   -2.5758   58.3674 C.3     1  ZINC000051488227    0.0000
     20 C20       -12.2978   -3.2381   57.5603 C.ar    1  ZINC000051488227   -0.0900
     21 C21       -12.6034   -4.5692   57.7737 C.ar    1  ZINC000051488227   -0.1100
     22 C22       -13.6003   -5.1768   57.0334 C.ar    1  ZINC000051488227   -0.1200
     23 C23       -14.2918   -4.4531   56.0801 C.ar    1  ZINC000051488227   -0.1100
     24 C24       -13.9868   -3.1217   55.8674 C.ar    1  ZINC000051488227   -0.1200
     25 C25       -12.9930   -2.5130   56.6106 C.ar    1  ZINC000051488227   -0.1000
     26 C26        -9.9118   -3.3761   58.2348 C.3     1  ZINC000051488227   -0.1400
     27 C27        -8.8367   -2.7392   59.1193 C.3     1  ZINC000051488227    0.0600
     28 O28        -9.2956   -2.7013   60.4721 O.3     1  ZINC000051488227   -0.3800
     29 C29       -10.4815   -1.9274   60.6645 C.3     1  ZINC000051488227    0.0500
     30 C30       -11.6226   -2.5319   59.8422 C.3     1  ZINC000051488227   -0.1400
     31 H31        -9.5460    0.8086   57.6953 H       1  ZINC000051488227    0.0800
     32 H32        -8.2570   -0.2795   57.1270 H       1  ZINC000051488227    0.0800
     33 H33       -11.2702    0.6075   55.1834 H       1  ZINC000051488227    0.1300
     34 H34       -11.1866    1.8260   53.0463 H       1  ZINC000051488227    0.1400
     35 H35       -10.6949    2.1956   51.0051 H       1  ZINC000051488227    0.0900
     36 H36       -10.9852    3.6203   52.0319 H       1  ZINC000051488227    0.0900
     37 H37       -10.3766    5.8446   51.2793 H       1  ZINC000051488227    0.1400
     38 H38        -9.9994    7.3127   49.3085 H       1  ZINC000051488227    0.1400
     39 H39        -9.4759    6.2553   47.1204 H       1  ZINC000051488227    0.1400
     40 H40        -9.3469    3.8004   46.9702 H       1  ZINC000051488227    0.1600
     41 H41        -7.0052    2.5086   53.6075 H       1  ZINC000051488227    0.1300
     42 H42        -7.0982    1.2933   55.7461 H       1  ZINC000051488227    0.1300
     43 H43       -12.0631   -5.1346   58.5185 H       1  ZINC000051488227    0.1300
     44 H44       -13.8385   -6.2170   57.1995 H       1  ZINC000051488227    0.1300
     45 H45       -15.0702   -4.9281   55.5011 H       1  ZINC000051488227    0.1200
     46 H46       -14.5270   -2.5564   55.1223 H       1  ZINC000051488227    0.1200
     47 H47       -12.7548   -1.4728   56.4444 H       1  ZINC000051488227    0.1300
     48 H48       -10.0832   -4.4044   58.5533 H       1  ZINC000051488227    0.0900
     49 H49        -9.5820   -3.3658   57.1960 H       1  ZINC000051488227    0.0900
     50 H50        -7.9222   -3.3294   59.0620 H       1  ZINC000051488227    0.1000
     51 H51        -8.6368   -1.7245   58.7747 H       1  ZINC000051488227    0.0500
     52 H52       -10.7517   -1.9330   61.7204 H       1  ZINC000051488227    0.1000
     53 H53       -10.3031   -0.9022   60.3402 H       1  ZINC000051488227    0.0700
     54 H54       -12.5163   -1.9177   59.9528 H       1  ZINC000051488227    0.0900
     55 H55       -11.8286   -3.5430   60.1931 H       1  ZINC000051488227    0.0900
@<TRIPOS>BOND
     1     1     2    2
     2     2     3    1
     3     2    19    1
     4     3     4    1
     5     4     5    1
     6     4    31    1
     7     4    32    1
     8     5    18   ar
     9     5     6   ar
    10     6     7   ar
    11     6    33    1
    12     7     8   ar
    13     7    34    1
    14     8     9    1
    15     8    17   ar
    16     9    10    1
    17    10    11    1
    18    10    35    1
    19    10    36    1
    20    11    16   ar
    21    11    12   ar
    22    12    13   ar
    23    12    37    1
    24    13    14   ar
    25    13    38    1
    26    14    15   ar
    27    14    39    1
    28    15    16   ar
    29    15    40    1
    30    17    18   ar
    31    17    41    1
    32    18    42    1
    33    19    30    1
    34    19    20    1
    35    19    26    1
    36    20    25   ar
    37    20    21   ar
    38    21    22   ar
    39    21    43    1
    40    22    23   ar
    41    22    44    1
    42    23    24   ar
    43    23    45    1
    44    24    25   ar
    45    24    46    1
    46    25    47    1
    47    26    27    1
    48    26    48    1
    49    26    49    1
    50    27    28    1
    51    27    50    1
    52    27    51    1
    53    28    29    1
    54    29    30    1
    55    29    52    1
    56    29    53    1
    57    30    54    1
    58    30    55    1
@<TRIPOS>SUBSTRUCTURE
     1 ZINC000051488227        1 TEMP              0 ****  ****    0 ROOT


##########                                Name:    ZINC000859496582
##########                DOCK_Rotatable_Bonds:                  10
##########                         Heavy_Atoms:                  26
##########                    Molecular_Weight:             361.438
##########                DOCK_Rotatable_Bonds:                  10
##########                       Formal_Charge:           0.0100006
##########                     HBond_Acceptors:                   6
##########                        HBond_Donors:                   0
##########                         Heavy_Atoms:                  26
##########                          Grid_Score:          -30.537664
##########                     Grid_vdw_energy:          -29.227448
##########                      Grid_es_energy:           -1.310217
##########           Internal_energy_repulsive:           13.036812

@<TRIPOS>MOLECULE
ZINC000859496582
 53 54 1 0 0
SMALL
USER_CHARGES


@<TRIPOS>ATOM
      1 C1         -6.5948   -0.0098   51.8643 C.3     1  ZINC000859496582    0.0300
      2 O2         -6.9470    0.6778   53.0938 O.3     1  ZINC000859496582   -0.3600
      3 C3         -7.4677    1.9093   52.9755 C.2     1  ZINC000859496582    0.4600
      4 O4         -7.6229    2.3971   51.8811 O.2     1  ZINC000859496582   -0.5100
      5 C5         -7.8585    2.6837   54.2079 C.3     1  ZINC000859496582   -0.1100
      6 C6         -6.9331    2.3018   55.3650 C.3     1  ZINC000859496582   -0.1100
      7 C7         -7.1796    3.2419   56.5467 C.3     1  ZINC000859496582   -0.1200
      8 C8         -8.5463    2.9381   57.1637 C.3     1  ZINC000859496582    0.0700
      9 O9         -8.5998    1.5416   57.5577 O.3     1  ZINC000859496582   -0.3500
     10 C10        -9.7674    1.0891   58.0410 C.2     1  ZINC000859496582    0.4700
     11 O11       -10.7218    1.8272   58.1041 O.2     1  ZINC000859496582   -0.5000
     12 C12        -9.8878   -0.3397   58.5050 C.3     1  ZINC000859496582   -0.1000
     13 H13        -8.9303   -0.6746   58.9039 H       1  ZINC000859496582    0.1200
     14 C14       -10.2882   -1.2279   57.3248 C.3     1  ZINC000859496582   -0.1100
     15 C15       -10.3787   -2.6839   57.7876 C.3     1  ZINC000859496582   -0.1300
     16 C16       -11.4550   -2.8051   58.8710 C.3     1  ZINC000859496582    0.1100
     17 N17       -11.1550   -1.8482   59.9448 N.am    1  ZINC000859496582   -0.6100
     18 C18       -11.0619   -2.2595   61.2248 C.2     1  ZINC000859496582    0.5700
     19 O19       -11.2267   -3.4319   61.5000 O.2     1  ZINC000859496582   -0.5300
     20 C20       -10.7593   -1.2846   62.2943 C.ar    1  ZINC000859496582   -0.1400
     21 C21        -9.4401   -1.0752   62.6993 C.ar    1  ZINC000859496582   -0.0900
     22 C22        -9.1646   -0.1638   63.6975 C.ar    1  ZINC000859496582   -0.1200
     23 C23       -10.1926    0.5418   64.2973 C.ar    1  ZINC000859496582   -0.0600
     24 C24        -9.8842    1.5356   65.3874 C.3     1  ZINC000859496582   -0.1200
     25 C25       -11.5024    0.3395   63.9002 C.ar    1  ZINC000859496582   -0.1200
     26 C26       -11.7911   -0.5653   62.8995 C.ar    1  ZINC000859496582   -0.0600
     27 C27       -10.9579   -0.4342   59.5971 C.3     1  ZINC000859496582    0.1100
     28 H28        -5.8491    0.5726   51.3232 H       1  ZINC000859496582    0.0600
     29 H29        -6.1864   -0.9922   52.1016 H       1  ZINC000859496582    0.1000
     30 H30        -7.4843   -0.1260   51.2453 H       1  ZINC000859496582    0.0600
     31 H31        -7.7700    3.7517   54.0092 H       1  ZINC000859496582    0.1100
     32 H32        -8.8890    2.4477   54.4737 H       1  ZINC000859496582    0.1100
     33 H33        -7.1362    1.2750   55.6690 H       1  ZINC000859496582    0.0800
     34 H34        -5.8951    2.3870   55.0433 H       1  ZINC000859496582    0.0800
     35 H35        -6.4019    3.0952   57.2961 H       1  ZINC000859496582    0.0800
     36 H36        -7.1593    4.2750   56.1994 H       1  ZINC000859496582    0.0800
     37 H37        -8.6979    3.5688   58.0397 H       1  ZINC000859496582    0.0700
     38 H38        -9.3282    3.1392   56.4314 H       1  ZINC000859496582    0.0700
     39 H39       -11.2571   -0.9077   56.9416 H       1  ZINC000859496582    0.0800
     40 H40        -9.5403   -1.1434   56.5365 H       1  ZINC000859496582    0.0800
     41 H41       -10.6411   -3.3189   56.9414 H       1  ZINC000859496582    0.0900
     42 H42        -9.4169   -2.9971   58.1936 H       1  ZINC000859496582    0.0700
     43 H43       -12.4316   -2.5795   58.4427 H       1  ZINC000859496582    0.0700
     44 H44       -11.4555   -3.8180   59.2738 H       1  ZINC000859496582    0.1000
     45 H45        -8.6368   -1.6259   62.2325 H       1  ZINC000859496582    0.1300
     46 H46        -8.1442   -0.0009   64.0119 H       1  ZINC000859496582    0.1300
     47 H47        -9.7114    2.5171   64.9461 H       1  ZINC000859496582    0.0800
     48 H48       -10.7259    1.5907   66.0776 H       1  ZINC000859496582    0.0700
     49 H49        -8.9921    1.2177   65.9270 H       1  ZINC000859496582    0.0700
     50 H50       -12.3003    0.8937   64.3721 H       1  ZINC000859496582    0.1300
     51 H51       -12.8140   -0.7221   62.5902 H       1  ZINC000859496582    0.1300
     52 H52       -10.6309    0.1167   60.4789 H       1  ZINC000859496582    0.1100
     53 H53       -11.8938   -0.0148   59.2278 H       1  ZINC000859496582    0.0800
@<TRIPOS>BOND
     1     1     2    1
     2     1    28    1
     3     1    29    1
     4     1    30    1
     5     2     3    1
     6     3     4    2
     7     3     5    1
     8     5     6    1
     9     5    31    1
    10     5    32    1
    11     6     7    1
    12     6    33    1
    13     6    34    1
    14     7     8    1
    15     7    35    1
    16     7    36    1
    17     8     9    1
    18     8    37    1
    19     8    38    1
    20     9    10    1
    21    10    11    2
    22    10    12    1
    23    12    13    1
    24    12    27    1
    25    12    14    1
    26    14    15    1
    27    14    39    1
    28    14    40    1
    29    15    16    1
    30    15    41    1
    31    15    42    1
    32    16    17    1
    33    16    43    1
    34    16    44    1
    35    17    18   am
    36    17    27    1
    37    18    19    2
    38    18    20    1
    39    20    26   ar
    40    20    21   ar
    41    21    22   ar
    42    21    45    1
    43    22    23   ar
    44    22    46    1
    45    23    24    1
    46    23    25   ar
    47    24    47    1
    48    24    48    1
    49    24    49    1
    50    25    26   ar
    51    25    50    1
    52    26    51    1
    53    27    52    1
    54    27    53    1
@<TRIPOS>SUBSTRUCTURE
     1 ZINC000859496582        1 TEMP              0 ****  ****    0 ROOT


##########                                Name:    ZINC000499369364
##########                DOCK_Rotatable_Bonds:                   9
##########                         Heavy_Atoms:                  25
##########                    Molecular_Weight:             384.527
##########                DOCK_Rotatable_Bonds:                   9
##########                       Formal_Charge:        -5.88596e-07
##########                     HBond_Acceptors:                  10
##########                        HBond_Donors:                   1
##########                         Heavy_Atoms:                  25
##########                          Grid_Score:          -30.525011
##########                     Grid_vdw_energy:          -28.460943
##########                      Grid_es_energy:           -2.064067
##########           Internal_energy_repulsive:           20.503607

@<TRIPOS>MOLECULE
ZINC000499369364
 49 51 1 0 0
SMALL
USER_CHARGES


@<TRIPOS>ATOM
      1 C1         -9.4250    1.7148   51.8498 C.3     1  ZINC000499369364   -0.1500
      2 C2        -10.2717    1.6541   53.1229 C.3     1  ZINC000499369364   -0.1000
      3 C3        -11.6686    1.1316   52.7819 C.3     1  ZINC000499369364   -0.1500
      4 C4         -9.6082    0.7151   54.1322 C.3     1  ZINC000499369364    0.1500
      5 H5         -9.2814   -0.1922   53.6241 H       1  ZINC000499369364    0.0900
      6 C6         -8.3991    1.4122   54.7591 C.3     1  ZINC000499369364   -0.1700
      7 N7        -10.5699    0.3678   55.1814 N.am    1  ZINC000499369364   -0.7200
      8 C8        -11.0414   -0.8915   55.2734 C.2     1  ZINC000499369364    0.5100
      9 O9        -10.6707   -1.7368   54.4867 O.2     1  ZINC000499369364   -0.5100
     10 C10       -12.0293   -1.2491   56.3538 C.3     1  ZINC000499369364    0.1200
     11 H11       -12.2755   -0.3475   56.9146 H       1  ZINC000499369364    0.1200
     12 C12       -13.3169   -1.7891   55.6908 C.3     1  ZINC000499369364   -0.0800
     13 S13       -13.0540   -3.6079   55.8181 S.3     1  ZINC000499369364   -0.2400
     14 C14       -12.1197   -3.4893   57.3997 C.3     1  ZINC000499369364    0.1400
     15 N15       -11.4089   -2.2068   57.2565 N.am    1  ZINC000499369364   -0.6000
     16 C16       -10.2655   -1.9366   57.9167 C.2     1  ZINC000499369364    0.5600
     17 O17        -9.7173   -0.8651   57.7667 O.2     1  ZINC000499369364   -0.5000
     18 C18        -9.6680   -2.9657   58.8414 C.3     1  ZINC000499369364   -0.1500
     19 S19        -9.1629   -2.1683   60.3858 S.3     1  ZINC000499369364    0.1300
     20 C20       -10.7437   -1.7952   61.0687 C.2     1  ZINC000499369364    0.2000
     21 N21       -11.8798   -2.3932   60.7822 N.2     1  ZINC000499369364   -0.3400
     22 N22       -12.8425   -1.8771   61.4574 N.2     1  ZINC000499369364   -0.0300
     23 N23       -12.4028   -0.9288   62.2117 N.2     1  ZINC000499369364   -0.0800
     24 N24       -11.0169   -0.8429   61.9916 N.pl3   1  ZINC000499369364   -0.3300
     25 C25       -10.0723    0.0843   62.6194 C.3     1  ZINC000499369364    0.0500
     26 C26       -10.4450    0.6518   63.9906 C.3     1  ZINC000499369364   -0.1500
     27 C27        -9.3370   -0.3967   63.8720 C.3     1  ZINC000499369364   -0.1600
     28 H28        -9.8977    2.3838   51.1307 H       1  ZINC000499369364    0.0600
     29 H29        -8.4298    2.0871   52.0928 H       1  ZINC000499369364    0.0600
     30 H30        -9.3444    0.7168   51.4192 H       1  ZINC000499369364    0.0600
     31 H31       -10.3522    2.6522   53.5536 H       1  ZINC000499369364    0.0800
     32 H32       -12.1413    1.8005   52.0627 H       1  ZINC000499369364    0.0600
     33 H33       -11.5880    0.1335   52.3512 H       1  ZINC000499369364    0.0600
     34 H34       -12.2717    1.0882   53.6887 H       1  ZINC000499369364    0.0500
     35 H35        -8.7259    2.3195   55.2672 H       1  ZINC000499369364    0.0600
     36 H36        -7.9264    0.7432   55.4782 H       1  ZINC000499369364    0.0600
     37 H37        -7.6835    1.6706   53.9785 H       1  ZINC000499369364    0.0700
     38 H38       -10.8673    1.0442   55.8100 H       1  ZINC000499369364    0.4000
     39 H39       -14.2024   -1.4816   56.2471 H       1  ZINC000499369364    0.1200
     40 H40       -13.3823   -1.4749   54.6491 H       1  ZINC000499369364    0.1300
     41 H41       -12.8010   -3.4625   58.2501 H       1  ZINC000499369364    0.1100
     42 H42       -11.4135   -4.3141   57.4944 H       1  ZINC000499369364    0.1200
     43 H43       -10.4092   -3.7357   59.0555 H       1  ZINC000499369364    0.1300
     44 H44        -8.7988   -3.4203   58.3660 H       1  ZINC000499369364    0.1300
     45 H45        -9.5284    0.7360   61.9356 H       1  ZINC000499369364    0.1600
     46 H46       -10.1464    1.6771   64.2090 H       1  ZINC000499369364    0.1200
     47 H47       -11.3930    0.3352   64.4255 H       1  ZINC000499369364    0.1200
     48 H48        -9.5561   -1.4030   64.2289 H       1  ZINC000499369364    0.1100
     49 H49        -8.3095   -0.0612   64.0124 H       1  ZINC000499369364    0.1200
@<TRIPOS>BOND
     1     1     2    1
     2     1    28    1
     3     1    29    1
     4     1    30    1
     5     2     3    1
     6     2     4    1
     7     2    31    1
     8     3    32    1
     9     3    33    1
    10     3    34    1
    11     4     5    1
    12     4     6    1
    13     4     7    1
    14     6    35    1
    15     6    36    1
    16     6    37    1
    17     7     8   am
    18     7    38    1
    19     8     9    2
    20     8    10    1
    21    10    11    1
    22    10    15    1
    23    10    12    1
    24    12    13    1
    25    12    39    1
    26    12    40    1
    27    13    14    1
    28    14    15    1
    29    14    41    1
    30    14    42    1
    31    15    16   am
    32    16    17    2
    33    16    18    1
    34    18    19    1
    35    18    43    1
    36    18    44    1
    37    19    20    1
    38    20    24    1
    39    20    21    2
    40    21    22    1
    41    22    23    2
    42    23    24    1
    43    24    25    1
    44    25    27    1
    45    25    26    1
    46    25    45    1
    47    26    27    1
    48    26    46    1
    49    26    47    1
    50    27    48    1
    51    27    49    1
@<TRIPOS>SUBSTRUCTURE
     1 ZINC000499369364        1 TEMP              0 ****  ****    0 ROOT


##########                                Name:    ZINC000504638019
##########                DOCK_Rotatable_Bonds:                   8
##########                         Heavy_Atoms:                  24
##########                    Molecular_Weight:             328.454
##########                DOCK_Rotatable_Bonds:                   8
##########                       Formal_Charge:        -1.49012e-08
##########                     HBond_Acceptors:                   4
##########                        HBond_Donors:                   1
##########                         Heavy_Atoms:                  24
##########                          Grid_Score:          -30.516207
##########                     Grid_vdw_energy:          -29.286716
##########                      Grid_es_energy:           -1.229490
##########           Internal_energy_repulsive:           26.431007

@<TRIPOS>MOLECULE
ZINC000504638019
 52 53 1 0 0
SMALL
USER_CHARGES


@<TRIPOS>ATOM
      1 C1        -16.1497   -7.0597   52.4741 C.3     1  ZINC000504638019   -0.1200
      2 C2        -15.6737   -6.2283   53.6374 C.ar    1  ZINC000504638019   -0.0900
      3 C3        -15.6532   -4.8496   53.5391 C.ar    1  ZINC000504638019   -0.1200
      4 C4        -15.2167   -4.0869   54.6061 C.ar    1  ZINC000504638019   -0.1100
      5 C5        -14.8008   -4.7030   55.7716 C.ar    1  ZINC000504638019   -0.0900
      6 C6        -14.3244   -3.8716   56.9347 C.3     1  ZINC000504638019   -0.0600
      7 H7        -14.3910   -2.8146   56.6772 H       1  ZINC000504638019    0.0900
      8 C8        -15.2003   -4.1550   58.1569 C.3     1  ZINC000504638019   -0.1500
      9 C9        -12.8714   -4.2280   57.2551 C.3     1  ZINC000504638019    0.1300
     10 N10       -12.3960   -3.3925   58.3606 N.am    1  ZINC000504638019   -0.7000
     11 C11       -11.4210   -3.8430   59.1748 C.2     1  ZINC000504638019    0.5100
     12 O12       -10.9360   -4.9401   58.9914 O.2     1  ZINC000504638019   -0.5100
     13 C13       -10.9373   -2.9914   60.3037 C.2     1  ZINC000504638019    0.5100
     14 O14       -11.2346   -3.2722   61.4462 O.2     1  ZINC000504638019   -0.5200
     15 N15       -10.1708   -1.9117   60.0529 N.am    1  ZINC000504638019   -0.5800
     16 C16        -9.8117   -1.5727   58.6736 C.3     1  ZINC000504638019    0.0600
     17 C17        -9.6966   -1.0769   61.1594 C.3     1  ZINC000504638019    0.1100
     18 C18       -10.6603    0.0935   61.3646 C.3     1  ZINC000504638019   -0.1000
     19 H19       -10.4294    0.5981   62.3029 H       1  ZINC000504638019    0.0800
     20 C20       -12.0994   -0.4252   61.4001 C.3     1  ZINC000504638019   -0.0800
     21 C21       -13.0644    0.7223   61.3342 C.2     1  ZINC000504638019   -0.1500
     22 C22       -12.7469    1.9152   60.9449 C.2     1  ZINC000504638019   -0.1600
     23 C23       -11.3674    2.3202   60.5147 C.3     1  ZINC000504638019   -0.0900
     24 C24       -10.5251    1.0831   60.2003 C.3     1  ZINC000504638019   -0.1100
     25 C25       -14.8226   -6.0817   55.8705 C.ar    1  ZINC000504638019   -0.1100
     26 C26       -15.2628   -6.8441   54.8048 C.ar    1  ZINC000504638019   -0.1200
     27 H27       -17.2253   -7.2158   52.5551 H       1  ZINC000504638019    0.0700
     28 H28       -15.9271   -6.5410   51.5415 H       1  ZINC000504638019    0.0700
     29 H29       -15.6408   -8.0236   52.4840 H       1  ZINC000504638019    0.0700
     30 H30       -15.9781   -4.3683   52.6284 H       1  ZINC000504638019    0.1200
     31 H31       -15.2000   -3.0099   54.5290 H       1  ZINC000504638019    0.1200
     32 H32       -14.8557   -3.5536   58.9981 H       1  ZINC000504638019    0.0600
     33 H33       -16.2355   -3.9011   57.9287 H       1  ZINC000504638019    0.0600
     34 H34       -15.1338   -5.2120   58.4144 H       1  ZINC000504638019    0.0600
     35 H35       -12.8093   -5.2781   57.5405 H       1  ZINC000504638019    0.0800
     36 H36       -12.2520   -4.0534   56.3752 H       1  ZINC000504638019    0.0800
     37 H37       -12.7828   -2.5150   58.5065 H       1  ZINC000504638019    0.4100
     38 H38       -10.6174   -0.9957   58.2197 H       1  ZINC000504638019    0.0600
     39 H39        -8.8958   -0.9818   58.6713 H       1  ZINC000504638019    0.0700
     40 H40        -9.6548   -2.4884   58.1035 H       1  ZINC000504638019    0.1100
     41 H41        -9.6502   -1.6734   62.0706 H       1  ZINC000504638019    0.0900
     42 H42        -8.7036   -0.6932   60.9255 H       1  ZINC000504638019    0.0900
     43 H43       -12.2661   -1.0867   60.5499 H       1  ZINC000504638019    0.0800
     44 H44       -12.2608   -0.9803   62.3242 H       1  ZINC000504638019    0.0600
     45 H45       -14.0873    0.5414   61.6297 H       1  ZINC000504638019    0.1000
     46 H46       -13.5232    2.6659   60.9283 H       1  ZINC000504638019    0.1000
     47 H47       -11.4357    2.9474   59.6257 H       1  ZINC000504638019    0.0700
     48 H48       -10.8899    2.8837   61.3161 H       1  ZINC000504638019    0.0700
     49 H49        -9.4812    1.3720   60.0778 H       1  ZINC000504638019    0.0700
     50 H50       -10.8887    0.6150   59.2855 H       1  ZINC000504638019    0.0700
     51 H51       -14.4981   -6.5630   56.7812 H       1  ZINC000504638019    0.1200
     52 H52       -15.2798   -7.9212   54.8820 H       1  ZINC000504638019    0.1200
@<TRIPOS>BOND
     1     1     2    1
     2     1    27    1
     3     1    28    1
     4     1    29    1
     5     2    26   ar
     6     2     3   ar
     7     3     4   ar
     8     3    30    1
     9     4     5   ar
    10     4    31    1
    11     5     6    1
    12     5    25   ar
    13     6     7    1
    14     6     8    1
    15     6     9    1
    16     8    32    1
    17     8    33    1
    18     8    34    1
    19     9    10    1
    20     9    35    1
    21     9    36    1
    22    10    11   am
    23    10    37    1
    24    11    12    2
    25    11    13    1
    26    13    14    2
    27    13    15   am
    28    15    16    1
    29    15    17    1
    30    16    38    1
    31    16    39    1
    32    16    40    1
    33    17    18    1
    34    17    41    1
    35    17    42    1
    36    18    19    1
    37    18    24    1
    38    18    20    1
    39    20    21    1
    40    20    43    1
    41    20    44    1
    42    21    22    2
    43    21    45    1
    44    22    23    1
    45    22    46    1
    46    23    24    1
    47    23    47    1
    48    23    48    1
    49    24    49    1
    50    24    50    1
    51    25    26   ar
    52    25    51    1
    53    26    52    1
@<TRIPOS>SUBSTRUCTURE
     1 ZINC000504638019        1 TEMP              0 ****  ****    0 ROOT


##########                                Name:    ZINC001039825450
##########                DOCK_Rotatable_Bonds:                   8
##########                         Heavy_Atoms:                  24
##########                    Molecular_Weight:             337.339
##########                DOCK_Rotatable_Bonds:                   8
##########                       Formal_Charge:           0.0100001
##########                     HBond_Acceptors:                  11
##########                        HBond_Donors:                   4
##########                         Heavy_Atoms:                  24
##########                          Grid_Score:          -30.507257
##########                     Grid_vdw_energy:          -28.717554
##########                      Grid_es_energy:           -1.789704
##########           Internal_energy_repulsive:            6.204906

@<TRIPOS>MOLECULE
ZINC001039825450
 43 45 1 0 0
SMALL
USER_CHARGES


@<TRIPOS>ATOM
      1 O1          2.5578    0.2421   43.1244 O.2     1  ZINC001039825450   -0.5100
      2 C2          1.8021    1.1650   42.9055 C.2     1  ZINC001039825450    0.5000
      3 C3          1.9228    1.9502   41.6249 C.3     1  ZINC001039825450    0.1300
      4 N4          2.8381    3.0762   41.8268 N.pl3   1  ZINC001039825450   -0.1500
      5 N5          2.4815    4.2444   42.2292 N.2     1  ZINC001039825450   -0.2800
      6 C6          3.5475    5.0091   42.3009 C.2     1  ZINC001039825450   -0.0200
      7 C7          4.6204    4.2083   41.9029 C.2     1  ZINC001039825450   -0.0200
      8 N8          4.1083    3.0294   41.6313 N.2     1  ZINC001039825450   -0.2800
      9 N9          0.8506    1.4849   43.8048 N.am    1  ZINC001039825450   -0.7300
     10 C10         0.7332    0.7216   45.0497 C.3     1  ZINC001039825450    0.1000
     11 C11        -0.5632    1.1080   45.7645 C.3     1  ZINC001039825450    0.1100
     12 O12        -1.6749    1.0273   44.8702 O.3     1  ZINC001039825450   -0.5400
     13 C13        -0.7905    0.2127   47.0112 C.3     1  ZINC001039825450   -0.1600
     14 C14        -1.6571    1.1363   47.9034 C.3     1  ZINC001039825450    0.1000
     15 N15        -1.1180    2.4903   47.6808 N.am    1  ZINC001039825450   -0.6100
     16 C16        -1.2189    3.5263   48.5367 C.2     1  ZINC001039825450    0.5200
     17 O17        -0.7362    4.6008   48.2478 O.2     1  ZINC001039825450   -0.5100
     18 C18        -1.9312    3.3497   49.8530 C.3     1  ZINC001039825450    0.1100
     19 H19        -2.7063    2.5881   49.7682 H       1  ZINC001039825450    0.1200
     20 C20        -2.5357    4.6866   50.3245 C.3     1  ZINC001039825450    0.1100
     21 N21        -1.8560    4.9495   51.6018 N.am    1  ZINC001039825450   -0.7400
     22 C22        -0.9972    3.9537   51.8565 C.2     1  ZINC001039825450    0.7100
     23 O23        -0.3008    3.9173   52.8525 O.2     1  ZINC001039825450   -0.5800
     24 N24        -0.9757    2.9978   50.9139 N.am    1  ZINC001039825450   -0.7200
     25 C25        -0.4517    2.5229   46.3706 C.3     1  ZINC001039825450    0.1200
     26 H26         2.3104    1.3038   40.8374 H       1  ZINC001039825450    0.1400
     27 H27         0.9418    2.3270   41.3357 H       1  ZINC001039825450    0.1400
     28 H28         3.5861    6.0448   42.6048 H       1  ZINC001039825450    0.2000
     29 H29         5.6588    4.4977   41.8362 H       1  ZINC001039825450    0.2000
     30 H30         0.2437    2.2206   43.6278 H       1  ZINC001039825450    0.4000
     31 H31         0.7189   -0.3443   44.8223 H       1  ZINC001039825450    0.0900
     32 H32         1.5836    0.9443   45.6941 H       1  ZINC001039825450    0.0900
     33 H33        -2.3260    1.7326   44.9876 H       1  ZINC001039825450    0.3800
     34 H34        -1.3322   -0.6953   46.7466 H       1  ZINC001039825450    0.0900
     35 H35         0.1549   -0.0260   47.4983 H       1  ZINC001039825450    0.0900
     36 H36        -2.7019    1.0887   47.5964 H       1  ZINC001039825450    0.0800
     37 H37        -1.5556    0.8551   48.9516 H       1  ZINC001039825450    0.0800
     38 H38        -2.3206    5.4781   49.6066 H       1  ZINC001039825450    0.0900
     39 H39        -3.6106    4.5880   50.4762 H       1  ZINC001039825450    0.1000
     40 H40        -2.0059    5.7215   52.1696 H       1  ZINC001039825450    0.4400
     41 H41        -0.4176    2.2046   50.9306 H       1  ZINC001039825450    0.4400
     42 H42         0.5974    2.7912   46.4949 H       1  ZINC001039825450    0.0900
     43 H43        -0.9467    3.2446   45.7208 H       1  ZINC001039825450    0.0900
@<TRIPOS>BOND
     1     1     2    2
     2     2     3    1
     3     2     9   am
     4     3     4    1
     5     3    26    1
     6     3    27    1
     7     4     8    1
     8     4     5    1
     9     5     6    2
    10     6     7    1
    11     6    28    1
    12     7     8    2
    13     7    29    1
    14     9    10    1
    15     9    30    1
    16    10    11    1
    17    10    31    1
    18    10    32    1
    19    11    25    1
    20    11    12    1
    21    11    13    1
    22    12    33    1
    23    13    14    1
    24    13    34    1
    25    13    35    1
    26    14    15    1
    27    14    36    1
    28    14    37    1
    29    15    16   am
    30    15    25    1
    31    16    17    2
    32    16    18    1
    33    18    19    1
    34    18    24    1
    35    18    20    1
    36    20    21    1
    37    20    38    1
    38    20    39    1
    39    21    22   am
    40    21    40    1
    41    22    23    2
    42    22    24   am
    43    24    41    1
    44    25    42    1
    45    25    43    1
@<TRIPOS>SUBSTRUCTURE
     1 ZINC001039825450        1 TEMP              0 ****  ****    0 ROOT


##########                                Name:    ZINC000826052721
##########                DOCK_Rotatable_Bonds:                   3
##########                         Heavy_Atoms:                  29
##########                    Molecular_Weight:             393.399
##########                DOCK_Rotatable_Bonds:                   3
##########                       Formal_Charge:        -4.47035e-07
##########                     HBond_Acceptors:                   9
##########                        HBond_Donors:                   2
##########                         Heavy_Atoms:                  29
##########                          Grid_Score:          -30.494917
##########                     Grid_vdw_energy:          -24.287216
##########                      Grid_es_energy:           -6.207701
##########           Internal_energy_repulsive:           17.678980

@<TRIPOS>MOLECULE
ZINC000826052721
 46 50 1 0 0
SMALL
USER_CHARGES


@<TRIPOS>ATOM
      1 C1        -10.4998    3.0567   60.1046 C.3     1  ZINC000826052721   -0.0400
      2 N2        -10.1174    1.6407   60.1866 N.4     1  ZINC000826052721   -0.3800
      3 H3         -9.1156    1.5664   60.2811 H       1  ZINC000826052721    0.4300
      4 C4        -10.5484    0.9449   58.9708 C.3     1  ZINC000826052721    0.0500
      5 C5        -10.3013   -0.5356   59.0921 C.ar    1  ZINC000826052721   -0.1300
      6 C6        -10.2730   -1.2999   57.9355 C.ar    1  ZINC000826052721   -0.1000
      7 C7        -10.0554   -2.6616   58.0044 C.ar    1  ZINC000826052721   -0.1000
      8 C8         -9.8647   -3.2676   59.2319 C.ar    1  ZINC000826052721   -0.0800
      9 C9         -9.8911   -2.5077   60.3848 C.ar    1  ZINC000826052721   -0.0800
     10 C10       -10.1083   -1.1407   60.3162 C.ar    1  ZINC000826052721   -0.1200
     11 C11       -10.1264   -0.3462   61.5971 C.3     1  ZINC000826052721    0.1100
     12 H12        -9.1050   -0.2065   61.9513 H       1  ZINC000826052721    0.1100
     13 N13       -10.9003   -1.0734   62.6121 N.3     1  ZINC000826052721   -0.6200
     14 C14       -11.4513   -0.2020   63.5332 C.ar    1  ZINC000826052721    0.1600
     15 C15       -12.7994    0.1658   63.4635 C.ar    1  ZINC000826052721   -0.0400
     16 C16       -13.6657   -0.3746   62.3957 C.2     1  ZINC000826052721    0.0700
     17 N17       -15.0002   -0.3532   62.3618 N.2     1  ZINC000826052721   -0.3800
     18 N18       -15.3686   -0.9202   61.2640 N.2     1  ZINC000826052721   -0.1600
     19 N19       -14.3269   -1.3039   60.6132 N.2     1  ZINC000826052721   -0.1700
     20 N20       -13.2685   -0.9859   61.2770 N.pl3   1  ZINC000826052721   -0.3400
     21 C21       -13.3215    1.0487   64.4197 C.ar    1  ZINC000826052721    0.1800
     22 N22       -12.5764    1.5472   65.3739 N.ar    1  ZINC000826052721   -0.4700
     23 C23       -11.2779    1.2394   65.4932 C.ar    1  ZINC000826052721    0.0900
     24 C24       -10.4999    1.7910   66.5273 C.ar    1  ZINC000826052721    0.1700
     25 F25       -11.0590    2.6408   67.4163 F       1  ZINC000826052721   -0.1100
     26 C26        -9.1798    1.4645   66.6300 C.ar    1  ZINC000826052721   -0.1900
     27 C27        -8.5843    0.5899   65.7230 C.ar    1  ZINC000826052721    0.1300
     28 F28        -7.2741    0.2858   65.8503 F       1  ZINC000826052721   -0.1300
     29 C29        -9.3096    0.0372   64.7072 C.ar    1  ZINC000826052721   -0.1500
     30 C30       -10.6692    0.3519   64.5741 C.ar    1  ZINC000826052721   -0.0600
     31 C31       -10.7695    1.0189   61.3488 C.3     1  ZINC000826052721    0.0000
     32 H32       -11.5825    3.1355   60.0062 H       1  ZINC000826052721    0.1200
     33 H33       -10.1787    3.5729   61.0094 H       1  ZINC000826052721    0.1300
     34 H34       -10.0220    3.5124   59.2374 H       1  ZINC000826052721    0.1200
     35 H35        -9.9919    1.3335   58.1178 H       1  ZINC000826052721    0.1400
     36 H36       -11.6128    1.1202   58.8145 H       1  ZINC000826052721    0.1400
     37 H37       -10.4216   -0.8275   56.9758 H       1  ZINC000826052721    0.1300
     38 H38       -10.0341   -3.2523   57.1005 H       1  ZINC000826052721    0.1300
     39 H39        -9.6951   -4.3327   59.2893 H       1  ZINC000826052721    0.1300
     40 H40        -9.7413   -2.9807   61.3440 H       1  ZINC000826052721    0.1400
     41 H41       -10.3321   -1.7707   63.0690 H       1  ZINC000826052721    0.4100
     42 H42       -14.3635    1.3276   64.3652 H       1  ZINC000826052721    0.1800
     43 H43        -8.5869    1.8904   67.4259 H       1  ZINC000826052721    0.1600
     44 H44        -8.8382   -0.6389   64.0093 H       1  ZINC000826052721    0.1400
     45 H45       -11.8331    0.8911   61.1477 H       1  ZINC000826052721    0.1400
     46 H46       -10.6337    1.6522   62.2256 H       1  ZINC000826052721    0.1400
@<TRIPOS>BOND
     1     1     2    1
     2     1    32    1
     3     1    33    1
     4     1    34    1
     5     2     3    1
     6     2    31    1
     7     2     4    1
     8     4     5    1
     9     4    35    1
    10     4    36    1
    11     5    10   ar
    12     5     6   ar
    13     6     7   ar
    14     6    37    1
    15     7     8   ar
    16     7    38    1
    17     8     9   ar
    18     8    39    1
    19     9    10   ar
    20     9    40    1
    21    10    11    1
    22    11    12    1
    23    11    13    1
    24    11    31    1
    25    13    14    1
    26    13    41    1
    27    14    30   ar
    28    14    15   ar
    29    15    16    1
    30    15    21   ar
    31    16    20    1
    32    16    17    2
    33    17    18    1
    34    18    19    2
    35    19    20    1
    36    21    22   ar
    37    21    42    1
    38    22    23   ar
    39    23    30   ar
    40    23    24   ar
    41    24    25    1
    42    24    26   ar
    43    26    27   ar
    44    26    43    1
    45    27    28    1
    46    27    29   ar
    47    29    30   ar
    48    29    44    1
    49    31    45    1
    50    31    46    1
@<TRIPOS>SUBSTRUCTURE
     1 ZINC000826052721        1 TEMP              0 ****  ****    0 ROOT


##########                                Name:    ZINC000918875053
##########                DOCK_Rotatable_Bonds:                   6
##########                         Heavy_Atoms:                  26
##########                    Molecular_Weight:             359.357
##########                DOCK_Rotatable_Bonds:                   6
##########                       Formal_Charge:           0.0200003
##########                     HBond_Acceptors:                   8
##########                        HBond_Donors:                   0
##########                         Heavy_Atoms:                  26
##########                          Grid_Score:          -30.494669
##########                     Grid_vdw_energy:          -30.905422
##########                      Grid_es_energy:            0.410754
##########           Internal_energy_repulsive:            9.348639

@<TRIPOS>MOLECULE
ZINC000918875053
 44 47 1 0 0
SMALL
USER_CHARGES


@<TRIPOS>ATOM
      1 C1        -14.0461   -3.8971   55.3506 C.3     1  ZINC000918875053   -0.1700
      2 C2        -13.5765   -4.4727   56.6882 C.3     1  ZINC000918875053    0.1900
      3 H3        -13.4913   -5.5563   56.6076 H       1  ZINC000918875053    0.1400
      4 O4        -12.2826   -3.9094   57.0300 O.3     1  ZINC000918875053   -0.3400
      5 C5        -11.5624   -4.5570   57.9594 C.2     1  ZINC000918875053    0.4800
      6 O6        -11.7370   -5.7382   58.1442 O.2     1  ZINC000918875053   -0.4900
      7 C7        -10.5364   -3.8107   58.7726 C.3     1  ZINC000918875053   -0.0900
      8 H8         -9.6689   -4.4392   58.9739 H       1  ZINC000918875053    0.1400
      9 C9        -10.1180   -2.4998   58.0672 C.3     1  ZINC000918875053   -0.1400
     10 C10        -9.9330   -1.5126   59.1983 C.2     1  ZINC000918875053    0.5300
     11 O11        -9.3441   -0.4560   59.1090 O.2     1  ZINC000918875053   -0.5000
     12 N12       -10.5165   -1.9764   60.3169 N.am    1  ZINC000918875053   -0.5800
     13 C13       -10.5180   -1.3032   61.5449 C.ar    1  ZINC000918875053    0.1000
     14 C14        -9.3422   -1.1795   62.2716 C.ar    1  ZINC000918875053   -0.0800
     15 C15        -9.3464   -0.5144   63.4828 C.ar    1  ZINC000918875053   -0.1200
     16 C16       -10.5200    0.0280   63.9722 C.ar    1  ZINC000918875053   -0.0800
     17 C17       -11.6945   -0.0926   63.2517 C.ar    1  ZINC000918875053   -0.1500
     18 C18       -11.6966   -0.7518   62.0363 C.ar    1  ZINC000918875053    0.1100
     19 F19       -12.8435   -0.8692   61.3322 F       1  ZINC000918875053   -0.1300
     20 C20       -11.1516   -3.2800   60.0864 C.3     1  ZINC000918875053    0.1200
     21 C21       -14.5748   -4.1258   57.7625 C.2     1  ZINC000918875053    0.1800
     22 N22       -14.6152   -3.0179   58.4628 N.2     1  ZINC000918875053   -0.4600
     23 C23       -15.6650   -3.1523   59.2928 C.2     1  ZINC000918875053    0.2100
     24 C24       -16.1352   -2.1416   60.3069 C.3     1  ZINC000918875053   -0.0900
     25 C25       -17.1330   -2.6149   61.3658 C.3     1  ZINC000918875053   -0.1600
     26 C26       -15.6810   -2.3307   61.7556 C.3     1  ZINC000918875053   -0.1500
     27 N27       -16.1995   -4.3134   59.0592 N.2     1  ZINC000918875053   -0.3700
     28 O28       -15.5917   -4.8861   58.1795 O.3     1  ZINC000918875053    0.1000
     29 H29       -13.3240   -4.1479   54.5735 H       1  ZINC000918875053    0.0900
     30 H30       -15.0175   -4.3198   55.0941 H       1  ZINC000918875053    0.0900
     31 H31       -14.1314   -2.8134   55.4312 H       1  ZINC000918875053    0.0800
     32 H32        -9.1823   -2.6397   57.5260 H       1  ZINC000918875053    0.1300
     33 H33       -10.9039   -2.1627   57.3913 H       1  ZINC000918875053    0.1100
     34 H34        -8.4246   -1.6033   61.8910 H       1  ZINC000918875053    0.1400
     35 H35        -8.4312   -0.4183   64.0482 H       1  ZINC000918875053    0.1400
     36 H36       -10.5199    0.5466   64.9194 H       1  ZINC000918875053    0.1400
     37 H37       -12.6097    0.3322   63.6368 H       1  ZINC000918875053    0.1400
     38 H38       -12.2294   -3.1603   59.9762 H       1  ZINC000918875053    0.1000
     39 H39       -10.9289   -3.9588   60.9096 H       1  ZINC000918875053    0.1000
     40 H40       -16.2365   -1.1201   59.9404 H       1  ZINC000918875053    0.1400
     41 H41       -17.8911   -1.9049   61.6962 H       1  ZINC000918875053    0.1100
     42 H42       -17.4493   -3.6574   61.3289 H       1  ZINC000918875053    0.1000
     43 H43       -15.0421   -3.1860   61.9752 H       1  ZINC000918875053    0.1000
     44 H44       -15.4840   -1.4335   62.3424 H       1  ZINC000918875053    0.1100
@<TRIPOS>BOND
     1     1     2    1
     2     1    29    1
     3     1    30    1
     4     1    31    1
     5     2     3    1
     6     2     4    1
     7     2    21    1
     8     4     5    1
     9     5     6    2
    10     5     7    1
    11     7     8    1
    12     7    20    1
    13     7     9    1
    14     9    10    1
    15     9    32    1
    16     9    33    1
    17    10    11    2
    18    10    12   am
    19    12    13    1
    20    12    20    1
    21    13    18   ar
    22    13    14   ar
    23    14    15   ar
    24    14    34    1
    25    15    16   ar
    26    15    35    1
    27    16    17   ar
    28    16    36    1
    29    17    18   ar
    30    17    37    1
    31    18    19    1
    32    20    38    1
    33    20    39    1
    34    21    28    1
    35    21    22    2
    36    22    23    1
    37    23    24    1
    38    23    27    2
    39    24    26    1
    40    24    25    1
    41    24    40    1
    42    25    26    1
    43    25    41    1
    44    25    42    1
    45    26    43    1
    46    26    44    1
    47    27    28    1
@<TRIPOS>SUBSTRUCTURE
     1 ZINC000918875053        1 TEMP              0 ****  ****    0 ROOT


##########                                Name:    ZINC000504243286
##########                DOCK_Rotatable_Bonds:                   7
##########                         Heavy_Atoms:                  29
##########                    Molecular_Weight:             408.337
##########                DOCK_Rotatable_Bonds:                   7
##########                       Formal_Charge:           0.0299994
##########                     HBond_Acceptors:                  11
##########                        HBond_Donors:                   3
##########                         Heavy_Atoms:                  29
##########                          Grid_Score:          -30.492533
##########                     Grid_vdw_energy:          -27.318592
##########                      Grid_es_energy:           -3.173940
##########           Internal_energy_repulsive:           11.210737

@<TRIPOS>MOLECULE
ZINC000504243286
 44 46 1 0 0
SMALL
USER_CHARGES


@<TRIPOS>ATOM
      1 O1         -9.3121   -0.4727   57.5306 O.2     1  ZINC000504243286   -0.5200
      2 C2        -10.0229    0.4970   57.6905 C.2     1  ZINC000504243286    0.5200
      3 C3        -11.0076    0.5297   58.8308 C.3     1  ZINC000504243286   -0.1600
      4 C4        -10.3272    0.0295   60.1066 C.3     1  ZINC000504243286    0.1300
      5 N5        -11.2516    0.1589   61.2359 N.pl3   1  ZINC000504243286   -0.7200
      6 C6        -10.7613    0.1548   62.5437 C.ar    1  ZINC000504243286    0.3100
      7 C7         -9.4110   -0.0685   62.7801 C.ar    1  ZINC000504243286   -0.1900
      8 C8         -8.9293   -0.0714   64.0746 C.ar    1  ZINC000504243286    0.0200
      9 C9         -9.7898    0.1476   65.1346 C.ar    1  ZINC000504243286   -0.2400
     10 C10        -9.2605    0.1443   66.5455 C.3     1  ZINC000504243286    0.5200
     11 F11        -9.3138   -1.1553   67.0606 F       1  ZINC000504243286   -0.1700
     12 F12        -7.9354    0.5928   66.5477 F       1  ZINC000504243286   -0.1700
     13 F13       -10.0411    0.9925   67.3383 F       1  ZINC000504243286   -0.1700
     14 C14       -11.1349    0.3703   64.9027 C.ar    1  ZINC000504243286    0.0400
     15 C15       -11.6221    0.3798   63.6107 C.ar    1  ZINC000504243286   -0.1200
     16 N16       -13.0618    0.6182   63.3635 N.pl3   1  ZINC000504243286    0.0400
     17 O17       -13.4137    1.2750   62.4001 O.2     1  ZINC000504243286   -0.1700
     18 O18       -13.8947    0.1576   64.1236 O.2     1  ZINC000504243286   -0.1400
     19 N19        -9.9281    1.5476   56.8516 N.am    1  ZINC000504243286   -0.6700
     20 C20        -9.0128    1.5172   55.7917 C.ar    1  ZINC000504243286    0.1200
     21 C21        -7.8325    2.2445   55.8682 C.ar    1  ZINC000504243286   -0.1000
     22 C22        -6.9292    2.2163   54.8267 C.ar    1  ZINC000504243286   -0.1200
     23 C23        -7.1945    1.4576   53.6884 C.ar    1  ZINC000504243286    0.1300
     24 N24        -6.4490    1.2727   52.5215 N.am    1  ZINC000504243286   -0.6600
     25 C25        -7.0627    0.4539   51.6507 C.2     1  ZINC000504243286    0.5300
     26 O26        -6.6467    0.1182   50.5618 O.2     1  ZINC000504243286   -0.5000
     27 C27        -8.3704    0.0287   52.2837 C.3     1  ZINC000504243286   -0.1200
     28 C28        -8.3784    0.7331   53.6208 C.ar    1  ZINC000504243286   -0.1200
     29 C29        -9.2792    0.7543   54.6605 C.ar    1  ZINC000504243286   -0.0600
     30 H30       -11.3555    1.5516   58.9812 H       1  ZINC000504243286    0.1100
     31 H31       -11.8566   -0.1124   58.5961 H       1  ZINC000504243286    0.1100
     32 H32       -10.0484   -1.0169   59.9835 H       1  ZINC000504243286    0.0800
     33 H33        -9.4337    0.6235   60.2986 H       1  ZINC000504243286    0.0900
     34 H34       -12.2040    0.2474   61.0753 H       1  ZINC000504243286    0.4100
     35 H35        -8.7384   -0.2399   61.9527 H       1  ZINC000504243286    0.1600
     36 H36        -7.8795   -0.2453   64.2592 H       1  ZINC000504243286    0.1600
     37 H37       -11.8044    0.5411   65.7329 H       1  ZINC000504243286    0.1600
     38 H38       -10.4937    2.3249   56.9819 H       1  ZINC000504243286    0.4200
     39 H39        -7.6211    2.8352   56.7472 H       1  ZINC000504243286    0.1400
     40 H40        -6.0131    2.7844   54.8931 H       1  ZINC000504243286    0.1300
     41 H41        -5.5875    1.6875   52.3587 H       1  ZINC000504243286    0.4100
     42 H42        -9.2133    0.3557   51.6748 H       1  ZINC000504243286    0.1300
     43 H43        -8.3942   -1.0523   52.4213 H       1  ZINC000504243286    0.1300
     44 H44       -10.1931    0.1823   54.5965 H       1  ZINC000504243286    0.1500
@<TRIPOS>BOND
     1     1     2    2
     2     2     3    1
     3     2    19   am
     4     3     4    1
     5     3    30    1
     6     3    31    1
     7     4     5    1
     8     4    32    1
     9     4    33    1
    10     5     6    1
    11     5    34    1
    12     6    15   ar
    13     6     7   ar
    14     7     8   ar
    15     7    35    1
    16     8     9   ar
    17     8    36    1
    18     9    10    1
    19     9    14   ar
    20    10    11    1
    21    10    12    1
    22    10    13    1
    23    14    15   ar
    24    14    37    1
    25    15    16    1
    26    16    17    2
    27    16    18    2
    28    19    20    1
    29    19    38    1
    30    20    29   ar
    31    20    21   ar
    32    21    22   ar
    33    21    39    1
    34    22    23   ar
    35    22    40    1
    36    23    28   ar
    37    23    24    1
    38    24    25   am
    39    24    41    1
    40    25    26    2
    41    25    27    1
    42    27    28    1
    43    27    42    1
    44    27    43    1
    45    28    29   ar
    46    29    44    1
@<TRIPOS>SUBSTRUCTURE
     1 ZINC000504243286        1 TEMP              0 ****  ****    0 ROOT


##########                                Name:    ZINC001079355651
##########                DOCK_Rotatable_Bonds:                   5
##########                         Heavy_Atoms:                  25
##########                    Molecular_Weight:             353.851
##########                DOCK_Rotatable_Bonds:                   5
##########                       Formal_Charge:           0.0199997
##########                     HBond_Acceptors:                   5
##########                        HBond_Donors:                   1
##########                         Heavy_Atoms:                  25
##########                          Grid_Score:          -30.485138
##########                     Grid_vdw_energy:          -29.827902
##########                      Grid_es_energy:           -0.657236
##########           Internal_energy_repulsive:            8.733751

@<TRIPOS>MOLECULE
ZINC001079355651
 45 47 1 0 0
SMALL
USER_CHARGES


@<TRIPOS>ATOM
      1 C1        -12.1046    0.7606   60.3474 C.3     1  ZINC001079355651   -0.1500
      2 C2        -10.7874    0.1506   60.8311 C.3     1  ZINC001079355651   -0.1000
      3 H3        -10.1563    0.9191   61.2772 H       1  ZINC001079355651    0.0900
      4 C4        -10.0514   -0.5341   59.6594 C.3     1  ZINC001079355651    0.0300
      5 N5         -9.4354   -1.7449   60.2606 N.3     1  ZINC001079355651   -0.5100
      6 C6         -9.1289   -2.7463   59.2306 C.3     1  ZINC001079355651    0.1600
      7 C7        -10.3551   -3.0748   58.4854 C.1     1  ZINC001079355651   -0.1400
      8 C8        -11.3330   -3.3368   57.8910 C.1     1  ZINC001079355651   -0.1300
      9 C9        -12.5258   -3.6564   57.1659 C.ar    1  ZINC001079355651    0.0300
     10 C10       -13.1784   -2.6723   56.4226 C.ar    1  ZINC001079355651   -0.0900
     11 C11       -14.3277   -2.9860   55.7259 C.ar    1  ZINC001079355651   -0.1000
     12 C12       -14.8333   -4.2728   55.7630 C.ar    1  ZINC001079355651   -0.1000
     13 C13       -14.1910   -5.2542   56.4991 C.ar    1  ZINC001079355651   -0.0300
     14 Cl14      -14.8335   -6.8664   56.5402 Cl      1  ZINC001079355651   -0.0600
     15 C15       -13.0370   -4.9544   57.1954 C.ar    1  ZINC001079355651   -0.0900
     16 C16       -10.4667   -2.2491   61.2035 C.3     1  ZINC001079355651    0.0200
     17 C17       -11.0605   -0.9759   61.8489 C.3     1  ZINC001079355651    0.1500
     18 H18       -12.1329   -1.0946   62.0033 H       1  ZINC001079355651    0.1000
     19 N19       -10.3926   -0.6915   63.1215 N.am    1  ZINC001079355651   -0.7100
     20 C20       -11.0104    0.0611   64.0533 C.2     1  ZINC001079355651    0.5600
     21 O21       -12.1219    0.5027   63.8385 O.2     1  ZINC001079355651   -0.5300
     22 C22       -10.3343    0.3501   65.3395 C.ar    1  ZINC001079355651   -0.0900
     23 C23       -10.9597    1.1233   66.3222 C.ar    1  ZINC001079355651   -0.1400
     24 C24       -10.2927    1.3681   67.5069 C.ar    1  ZINC001079355651    0.1000
     25 N25        -9.0846    0.8840   67.7161 N.ar    1  ZINC001079355651   -0.4700
     26 C26        -8.4596    0.1508   66.8166 C.ar    1  ZINC001079355651    0.1000
     27 C27        -9.0553   -0.1478   65.6065 C.ar    1  ZINC001079355651   -0.1200
     28 H28       -12.6359    1.1958   61.1938 H       1  ZINC001079355651    0.0600
     29 H29       -11.8967    1.5367   59.6109 H       1  ZINC001079355651    0.0700
     30 H30       -12.7195   -0.0162   59.8929 H       1  ZINC001079355651    0.0600
     31 H31       -10.7583   -0.8149   58.8786 H       1  ZINC001079355651    0.0600
     32 H32        -9.2815    0.1245   59.2574 H       1  ZINC001079355651    0.0900
     33 H33        -8.3830   -2.3452   58.5444 H       1  ZINC001079355651    0.0700
     34 H34        -8.7393   -3.6474   59.7044 H       1  ZINC001079355651    0.1100
     35 H35       -12.7852   -1.6669   56.3929 H       1  ZINC001079355651    0.1300
     36 H36       -14.8336   -2.2248   55.1506 H       1  ZINC001079355651    0.1400
     37 H37       -15.7330   -4.5130   55.2161 H       1  ZINC001079355651    0.1400
     38 H38       -12.5365   -5.7203   57.7692 H       1  ZINC001079355651    0.1400
     39 H39       -11.2385   -2.7985   60.6644 H       1  ZINC001079355651    0.0600
     40 H40       -10.0094   -2.8820   61.9641 H       1  ZINC001079355651    0.0900
     41 H41        -9.5058   -1.0451   63.2934 H       1  ZINC001079355651    0.4000
     42 H42       -11.9492    1.5235   66.1575 H       1  ZINC001079355651    0.1400
     43 H43       -10.7673    1.9646   68.2720 H       1  ZINC001079355651    0.1600
     44 H44        -7.4699   -0.2252   67.0303 H       1  ZINC001079355651    0.1700
     45 H45        -8.5372   -0.7491   64.8741 H       1  ZINC001079355651    0.1500
@<TRIPOS>BOND
     1     1     2    1
     2     1    28    1
     3     1    29    1
     4     1    30    1
     5     2     3    1
     6     2    17    1
     7     2     4    1
     8     4     5    1
     9     4    31    1
    10     4    32    1
    11     5     6    1
    12     5    16    1
    13     6     7    1
    14     6    33    1
    15     6    34    1
    16     7     8    3
    17     8     9    1
    18     9    15   ar
    19     9    10   ar
    20    10    11   ar
    21    10    35    1
    22    11    12   ar
    23    11    36    1
    24    12    13   ar
    25    12    37    1
    26    13    14    1
    27    13    15   ar
    28    15    38    1
    29    16    17    1
    30    16    39    1
    31    16    40    1
    32    17    18    1
    33    17    19    1
    34    19    20   am
    35    19    41    1
    36    20    21    2
    37    20    22    1
    38    22    27   ar
    39    22    23   ar
    40    23    24   ar
    41    23    42    1
    42    24    25   ar
    43    24    43    1
    44    25    26   ar
    45    26    27   ar
    46    26    44    1
    47    27    45    1
@<TRIPOS>SUBSTRUCTURE
     1 ZINC001079355651        1 TEMP              0 ****  ****    0 ROOT


##########                                Name:    ZINC000501032137
##########                DOCK_Rotatable_Bonds:                  10
##########                         Heavy_Atoms:                  25
##########                    Molecular_Weight:             407.307
##########                DOCK_Rotatable_Bonds:                  10
##########                       Formal_Charge:           0.0099998
##########                     HBond_Acceptors:                   5
##########                        HBond_Donors:                   1
##########                         Heavy_Atoms:                  25
##########                          Grid_Score:          -30.481697
##########                     Grid_vdw_energy:          -29.110813
##########                      Grid_es_energy:           -1.370885
##########           Internal_energy_repulsive:           11.218259

@<TRIPOS>MOLECULE
ZINC000501032137
 48 50 1 0 0
SMALL
USER_CHARGES


@<TRIPOS>ATOM
      1 C1         -9.4001   -0.6711   63.8812 C.3     1  ZINC000501032137   -0.1500
      2 C2         -9.5203   -1.3305   62.5057 C.3     1  ZINC000501032137   -0.1200
      3 C3        -10.5904   -0.6076   61.6853 C.3     1  ZINC000501032137    0.0600
      4 O4        -10.9291   -1.3970   60.5434 O.3     1  ZINC000501032137   -0.3800
      5 C5         -9.8594   -1.5573   59.6096 C.3     1  ZINC000501032137    0.0500
      6 C6        -10.4046   -1.4418   58.1847 C.3     1  ZINC000501032137    0.1600
      7 H7         -9.6722   -1.8394   57.4821 H       1  ZINC000501032137    0.1000
      8 C8        -10.6766    0.0285   57.8603 C.3     1  ZINC000501032137   -0.0900
      9 C9         -9.7939    0.4626   56.7187 C.ar    1  ZINC000501032137   -0.0600
     10 C10       -10.1169    0.1085   55.4222 C.ar    1  ZINC000501032137   -0.0900
     11 C11        -9.3074    0.5066   54.3744 C.ar    1  ZINC000501032137   -0.1100
     12 C12        -8.1749    1.2586   54.6228 C.ar    1  ZINC000501032137   -0.0900
     13 C13        -7.8513    1.6132   55.9203 C.ar    1  ZINC000501032137   -0.0800
     14 Br14       -6.3017    2.6423   56.2610 Br      1  ZINC000501032137   -0.0600
     15 C15        -8.6643    1.2197   56.9676 C.ar    1  ZINC000501032137   -0.0800
     16 N16       -11.6505   -2.2045   58.0752 N.am    1  ZINC000501032137   -0.7100
     17 C17       -11.6109   -3.5259   57.8126 C.2     1  ZINC000501032137    0.6100
     18 O18       -10.5408   -4.0852   57.6681 O.2     1  ZINC000501032137   -0.5200
     19 C19       -12.8647   -4.2930   57.7007 C.2     1  ZINC000501032137   -0.0800
     20 C20       -14.1183   -3.8374   57.9710 C.2     1  ZINC000501032137    0.0800
     21 C21       -14.4878   -2.4542   58.4414 C.3     1  ZINC000501032137   -0.0800
     22 C22       -15.8423   -2.2812   59.1317 C.3     1  ZINC000501032137   -0.1700
     23 C23       -14.5519   -2.2151   59.9513 C.3     1  ZINC000501032137   -0.1500
     24 O24       -14.9631   -4.8545   57.7384 O.3     1  ZINC000501032137   -0.2000
     25 C25       -14.2451   -5.9119   57.3342 C.2     1  ZINC000501032137    0.1800
     26 N26       -12.9871   -5.5882   57.3021 N.2     1  ZINC000501032137   -0.4600
     27 H27        -9.1193    0.3750   63.7593 H       1  ZINC000501032137    0.0600
     28 H28       -10.3575   -0.7325   64.3984 H       1  ZINC000501032137    0.0600
     29 H29        -8.6377   -1.1862   64.4657 H       1  ZINC000501032137    0.0600
     30 H30        -8.5627   -1.2691   61.9885 H       1  ZINC000501032137    0.0700
     31 H31        -9.8009   -2.3767   62.6276 H       1  ZINC000501032137    0.0700
     32 H32       -11.4784   -0.4566   62.2991 H       1  ZINC000501032137    0.0500
     33 H33       -10.2062    0.3586   61.3582 H       1  ZINC000501032137    0.0500
     34 H34        -9.1120   -0.7816   59.7766 H       1  ZINC000501032137    0.0700
     35 H35        -9.4023   -2.5375   59.7454 H       1  ZINC000501032137    0.0600
     36 H36       -11.7222    0.1509   57.5780 H       1  ZINC000501032137    0.0900
     37 H37       -10.4632    0.6395   58.7373 H       1  ZINC000501032137    0.0800
     38 H38       -11.0017   -0.4794   55.2277 H       1  ZINC000501032137    0.1200
     39 H39        -9.5600    0.2294   53.3615 H       1  ZINC000501032137    0.1300
     40 H40        -7.5425    1.5692   53.8043 H       1  ZINC000501032137    0.1300
     41 H41        -8.4122    1.4966   57.9807 H       1  ZINC000501032137    0.1200
     42 H42       -12.5040   -1.7586   58.1917 H       1  ZINC000501032137    0.4100
     43 H43       -14.1325   -1.6346   57.8168 H       1  ZINC000501032137    0.1500
     44 H44       -16.3784   -1.3475   58.9611 H       1  ZINC000501032137    0.1100
     45 H45       -16.4660   -3.1676   59.2456 H       1  ZINC000501032137    0.1000
     46 H46       -14.3268   -3.0583   60.6044 H       1  ZINC000501032137    0.1000
     47 H47       -14.2393   -1.2381   60.3199 H       1  ZINC000501032137    0.1100
     48 H48       -14.6488   -6.8790   57.0730 H       1  ZINC000501032137    0.2500
@<TRIPOS>BOND
     1     1     2    1
     2     1    27    1
     3     1    28    1
     4     1    29    1
     5     2     3    1
     6     2    30    1
     7     2    31    1
     8     3     4    1
     9     3    32    1
    10     3    33    1
    11     4     5    1
    12     5     6    1
    13     5    34    1
    14     5    35    1
    15     6     7    1
    16     6     8    1
    17     6    16    1
    18     8     9    1
    19     8    36    1
    20     8    37    1
    21     9    15   ar
    22     9    10   ar
    23    10    11   ar
    24    10    38    1
    25    11    12   ar
    26    11    39    1
    27    12    13   ar
    28    12    40    1
    29    13    14    1
    30    13    15   ar
    31    15    41    1
    32    16    17   am
    33    16    42    1
    34    17    18    2
    35    17    19    1
    36    19    26    1
    37    19    20    2
    38    20    21    1
    39    20    24    1
    40    21    23    1
    41    21    22    1
    42    21    43    1
    43    22    23    1
    44    22    44    1
    45    22    45    1
    46    23    46    1
    47    23    47    1
    48    24    25    1
    49    25    26    2
    50    25    48    1
@<TRIPOS>SUBSTRUCTURE
     1 ZINC000501032137        1 TEMP              0 ****  ****    0 ROOT


##########                                Name:    ZINC000337709254
##########                DOCK_Rotatable_Bonds:                   7
##########                         Heavy_Atoms:                  22
##########                    Molecular_Weight:              329.42
##########                DOCK_Rotatable_Bonds:                   7
##########                       Formal_Charge:           0.0300004
##########                     HBond_Acceptors:                   8
##########                        HBond_Donors:                   2
##########                         Heavy_Atoms:                  22
##########                          Grid_Score:          -30.450338
##########                     Grid_vdw_energy:          -26.683628
##########                      Grid_es_energy:           -3.766711
##########           Internal_energy_repulsive:            9.679790

@<TRIPOS>MOLECULE
ZINC000337709254
 45 46 1 0 0
SMALL
USER_CHARGES


@<TRIPOS>ATOM
      1 C1         -8.2162    0.9439   65.3496 C.3     1  ZINC000337709254   -0.6700
      2 S2         -9.5857   -0.0048   64.6318 S.o2    1  ZINC000337709254    2.6100
      3 O3         -9.2439   -1.3810   64.5387 O.2     1  ZINC000337709254   -0.9500
      4 O4        -10.8248    0.4061   65.1930 O.2     1  ZINC000337709254   -0.9500
      5 N5         -9.6611    0.5047   63.0580 N.am    1  ZINC000337709254   -1.1200
      6 C6        -10.6687   -0.0557   62.1542 C.3     1  ZINC000337709254    0.1200
      7 C7         -9.9974   -0.4939   60.8509 C.3     1  ZINC000337709254   -0.1100
      8 H8         -9.3667    0.3049   60.4605 H       1  ZINC000337709254    0.1100
      9 C9         -9.1653   -1.7808   61.0757 C.3     1  ZINC000337709254   -0.1200
     10 C10        -9.0901   -2.3918   59.6544 C.3     1  ZINC000337709254   -0.1200
     11 C11       -10.4812   -2.1129   59.0487 C.3     1  ZINC000337709254   -0.1400
     12 C12       -11.0582   -0.9028   59.8082 C.3     1  ZINC000337709254    0.1500
     13 H13       -11.2429   -0.0811   59.1162 H       1  ZINC000337709254    0.1000
     14 N14       -12.3030   -1.2804   60.4820 N.am    1  ZINC000337709254   -0.7200
     15 C15       -13.4882   -1.0694   59.8761 C.2     1  ZINC000337709254    0.5300
     16 O16       -13.5242   -0.5656   58.7733 O.2     1  ZINC000337709254   -0.5100
     17 C17       -14.7685   -1.4595   60.5684 C.3     1  ZINC000337709254    0.0200
     18 C18       -15.6802   -0.3044   60.6052 C.1     1  ZINC000337709254    0.2000
     19 N19       -16.3838    0.5871   60.6336 N.1     1  ZINC000337709254   -0.3900
     20 C20       -15.4308   -2.6132   59.8090 C.3     1  ZINC000337709254   -0.1500
     21 C21       -16.6882   -3.0546   60.5624 C.3     1  ZINC000337709254    0.0600
     22 O22       -16.3353   -3.4352   61.8939 O.3     1  ZINC000337709254   -0.3700
     23 C23       -15.7550   -2.3828   62.6671 C.3     1  ZINC000337709254    0.0600
     24 C24       -14.4599   -1.9144   61.9982 C.3     1  ZINC000337709254   -0.1300
     25 H25        -7.2974    0.7235   64.8061 H       1  ZINC000337709254    0.1300
     26 H26        -8.4348    2.0093   65.2768 H       1  ZINC000337709254    0.1300
     27 H27        -8.0934    0.6690   66.3972 H       1  ZINC000337709254    0.1300
     28 H28        -9.0381    1.1742   62.7346 H       1  ZINC000337709254    0.4200
     29 H29       -11.1418   -0.9166   62.6264 H       1  ZINC000337709254    0.0600
     30 H30       -11.4234    0.7004   61.9379 H       1  ZINC000337709254    0.0900
     31 H31        -8.1691   -1.5370   61.4447 H       1  ZINC000337709254    0.0800
     32 H32        -9.6773   -2.4571   61.7603 H       1  ZINC000337709254    0.0700
     33 H33        -8.3134   -1.9003   59.0686 H       1  ZINC000337709254    0.0700
     34 H34        -8.9061   -3.4647   59.7096 H       1  ZINC000337709254    0.0700
     35 H35       -10.3863   -1.8757   57.9890 H       1  ZINC000337709254    0.0800
     36 H36       -11.1268   -2.9811   59.1809 H       1  ZINC000337709254    0.0700
     37 H37       -12.2742   -1.6822   61.3645 H       1  ZINC000337709254    0.4000
     38 H38       -15.7040   -2.2807   58.8075 H       1  ZINC000337709254    0.0900
     39 H39       -14.7356   -3.4498   59.7390 H       1  ZINC000337709254    0.1100
     40 H40       -17.3998   -2.2296   60.5967 H       1  ZINC000337709254    0.0500
     41 H41       -17.1402   -3.9035   60.0494 H       1  ZINC000337709254    0.1100
     42 H42       -16.4544   -1.5490   62.7289 H       1  ZINC000337709254    0.0500
     43 H43       -15.5345   -2.7478   63.6702 H       1  ZINC000337709254    0.1100
     44 H44       -13.7452   -2.7369   61.9724 H       1  ZINC000337709254    0.1100
     45 H45       -14.0390   -1.0822   62.5623 H       1  ZINC000337709254    0.0900
@<TRIPOS>BOND
     1     1     2    1
     2     1    25    1
     3     1    26    1
     4     1    27    1
     5     2     3    2
     6     2     4    2
     7     2     5   am
     8     5     6    1
     9     5    28    1
    10     6     7    1
    11     6    29    1
    12     6    30    1
    13     7     8    1
    14     7    12    1
    15     7     9    1
    16     9    10    1
    17     9    31    1
    18     9    32    1
    19    10    11    1
    20    10    33    1
    21    10    34    1
    22    11    12    1
    23    11    35    1
    24    11    36    1
    25    12    13    1
    26    12    14    1
    27    14    15   am
    28    14    37    1
    29    15    16    2
    30    15    17    1
    31    17    24    1
    32    17    18    1
    33    17    20    1
    34    18    19    3
    35    20    21    1
    36    20    38    1
    37    20    39    1
    38    21    22    1
    39    21    40    1
    40    21    41    1
    41    22    23    1
    42    23    24    1
    43    23    42    1
    44    23    43    1
    45    24    44    1
    46    24    45    1
@<TRIPOS>SUBSTRUCTURE
     1 ZINC000337709254        1 TEMP              0 ****  ****    0 ROOT


##########                                Name:    ZINC000291036115
##########                DOCK_Rotatable_Bonds:                   5
##########                         Heavy_Atoms:                  22
##########                    Molecular_Weight:             366.193
##########                DOCK_Rotatable_Bonds:                   5
##########                       Formal_Charge:                0.01
##########                     HBond_Acceptors:                   7
##########                        HBond_Donors:                   0
##########                         Heavy_Atoms:                  22
##########                          Grid_Score:          -30.447811
##########                     Grid_vdw_energy:          -28.980900
##########                      Grid_es_energy:           -1.466911
##########           Internal_energy_repulsive:            5.973659

@<TRIPOS>MOLECULE
ZINC000291036115
 35 37 1 0 0
SMALL
USER_CHARGES


@<TRIPOS>ATOM
      1 C1        -14.6148   -2.7096   57.3952 C.3     1  <0>        -0.1500
      2 C2        -13.6058   -3.7341   56.8725 C.3     1  <0>        -0.0400
      3 H3        -13.0913   -4.1990   57.7135 H       1  <0>         0.0900
      4 C4        -12.5848   -3.0322   55.9748 C.3     1  <0>        -0.0200
      5 C5        -11.4550   -2.5012   56.8189 C.2     1  <0>         0.1900
      6 N6        -10.9233   -3.0827   57.8672 N.2     1  <0>        -0.4500
      7 C7         -9.9569   -2.2493   58.2921 C.2     1  <0>         0.1500
      8 C8         -9.0483   -2.4665   59.4747 C.3     1  <0>         0.2300
      9 N9         -9.6714   -1.9098   60.6780 N.pl3   1  <0>        -0.3900
     10 C10        -9.0432   -1.3347   61.7181 C.2     1  <0>         0.2600
     11 N11        -9.9494   -0.9683   62.5877 N.2     1  <0>        -0.5400
     12 C12       -11.1621   -1.2912   62.1399 C.2     1  <0>         0.2000
     13 N13       -11.0441   -1.8654   60.9715 N.2     1  <0>        -0.3100
     14 N14        -9.9502   -1.2228   57.4954 N.2     1  <0>        -0.3600
     15 O15       -10.7994   -1.3507   56.6387 O.3     1  <0>         0.0900
     16 C16       -14.3290   -4.7917   56.0791 C.ar    1  <0>        -0.0900
     17 C17       -14.3880   -6.0894   56.5513 C.ar    1  <0>        -0.0700
     18 C18       -15.0514   -7.0607   55.8251 C.ar    1  <0>        -0.1400
     19 C19       -15.6569   -6.7336   54.6242 C.ar    1  <0>         0.1300
     20 F20       -16.3059   -7.6820   53.9139 F       1  <0>        -0.1200
     21 C21       -15.5973   -5.4325   54.1514 C.ar    1  <0>        -0.1300
     22 Br22      -16.4242   -4.9830   52.5113 Br      1  <0>        -0.0200
     23 C23       -14.9377   -4.4619   54.8823 C.ar    1  <0>        -0.0500
     24 H24       -14.0918   -1.9446   57.9690 H       1  <0>         0.0600
     25 H25       -15.1293   -2.2447   56.5542 H       1  <0>         0.0700
     26 H26       -15.3422   -3.2096   58.0347 H       1  <0>         0.0700
     27 H27       -12.1921   -3.7423   55.2470 H       1  <0>         0.1200
     28 H28       -13.0674   -2.2061   55.4526 H       1  <0>         0.1100
     29 H29        -8.8811   -3.5346   59.6130 H       1  <0>         0.1300
     30 H30        -8.0948   -1.9695   59.2962 H       1  <0>         0.1200
     31 H31        -7.9763   -1.1993   61.8186 H       1  <0>         0.2200
     32 H32       -12.0920   -1.1048   62.6564 H       1  <0>         0.2200
     33 H33       -13.9153   -6.3448   57.4882 H       1  <0>         0.1400
     34 H34       -15.0970   -8.0745   56.1944 H       1  <0>         0.1500
     35 H35       -14.8908   -3.4476   54.5143 H       1  <0>         0.1400
@<TRIPOS>BOND
     1     1     2    1
     2     1    24    1
     3     1    25    1
     4     1    26    1
     5     2     3    1
     6     2     4    1
     7     2    16    1
     8     4     5    1
     9     4    27    1
    10     4    28    1
    11     5    15    1
    12     5     6    2
    13     6     7    1
    14     7     8    1
    15     7    14    2
    16     8     9    1
    17     8    29    1
    18     8    30    1
    19     9    13    1
    20     9    10    1
    21    10    11    2
    22    10    31    1
    23    11    12    1
    24    12    13    2
    25    12    32    1
    26    14    15    1
    27    16    23   ar
    28    16    17   ar
    29    17    18   ar
    30    17    33    1
    31    18    19   ar
    32    18    34    1
    33    19    20    1
    34    19    21   ar
    35    21    22    1
    36    21    23   ar
    37    23    35    1
@<TRIPOS>SUBSTRUCTURE
     1 <0>         1 TEMP              0 ****  ****    0 ROOT


##########                                Name:    ZINC000892389374
##########                DOCK_Rotatable_Bonds:                   6
##########                         Heavy_Atoms:                  25
##########                    Molecular_Weight:             371.383
##########                DOCK_Rotatable_Bonds:                   6
##########                       Formal_Charge:          -0.0199998
##########                     HBond_Acceptors:                   9
##########                        HBond_Donors:                   1
##########                         Heavy_Atoms:                  25
##########                          Grid_Score:          -30.441504
##########                     Grid_vdw_energy:          -28.589846
##########                      Grid_es_energy:           -1.851659
##########           Internal_energy_repulsive:           10.523280

@<TRIPOS>MOLECULE
ZINC000892389374
 41 43 1 0 0
SMALL
USER_CHARGES


@<TRIPOS>ATOM
      1 C1         -9.5292   -0.6838   62.0027 C.3     1  ZINC000892389374   -0.1000
      2 C2        -10.9219   -1.1536   61.6700 C.ar    1  ZINC000892389374   -0.1800
      3 C3        -12.0167   -0.4704   62.1625 C.ar    1  ZINC000892389374   -0.0400
      4 C4        -13.2953   -0.8978   61.8594 C.ar    1  ZINC000892389374   -0.2100
      5 C5        -13.4837   -2.0168   61.0584 C.ar    1  ZINC000892389374    0.2200
      6 N6        -14.7791   -2.4489   60.7520 N.am    1  ZINC000892389374   -0.5700
      7 C7        -15.4063   -2.3967   59.4225 C.3     1  ZINC000892389374    0.0600
      8 C8        -16.8094   -2.9895   59.6550 C.3     1  ZINC000892389374    0.0400
      9 O9        -16.8257   -3.3103   61.0762 O.3     1  ZINC000892389374   -0.3200
     10 C10       -15.6484   -2.9830   61.6209 C.2     1  ZINC000892389374    0.6400
     11 O11       -15.3937   -3.1470   62.7976 O.2     1  ZINC000892389374   -0.5000
     12 C12       -12.3864   -2.7056   60.5618 C.ar    1  ZINC000892389374   -0.2300
     13 C13       -11.1035   -2.2707   60.8631 C.ar    1  ZINC000892389374    0.2400
     14 N14        -9.9962   -2.9611   60.3654 N.pl3   1  ZINC000892389374   -0.7400
     15 C15        -9.9719   -3.3955   58.9665 C.3     1  ZINC000892389374    0.2000
     16 C16        -9.8121   -2.1946   58.0703 C.2     1  ZINC000892389374   -0.2400
     17 C17        -8.8787   -1.2452   58.1868 C.2     1  ZINC000892389374    0.0600
     18 N18        -8.9489   -0.2950   57.2766 N.2     1  ZINC000892389374   -0.4500
     19 C19        -9.8897   -0.3898   56.3986 C.2     1  ZINC000892389374    0.0200
     20 C20       -10.1312    0.5946   55.2834 C.3     1  ZINC000892389374   -0.0900
     21 C21       -10.8800   -0.0994   54.1438 C.3     1  ZINC000892389374    0.4600
     22 F22       -10.2144   -1.2808   53.7996 F       1  ZINC000892389374   -0.1800
     23 F23       -12.1820   -0.4010   54.5569 F       1  ZINC000892389374   -0.1800
     24 F24       -10.9282    0.7493   53.0326 F       1  ZINC000892389374   -0.1700
     25 S25       -10.8181   -1.7979   56.6792 S.3     1  ZINC000892389374    0.1900
     26 H26        -9.1977    0.0317   61.2501 H       1  ZINC000892389374    0.0700
     27 H27        -9.5313   -0.2058   62.9823 H       1  ZINC000892389374    0.0700
     28 H28        -8.8513   -1.5372   62.0161 H       1  ZINC000892389374    0.0600
     29 H29       -11.8731    0.3995   62.7862 H       1  ZINC000892389374    0.1300
     30 H30       -14.1493   -0.3614   62.2462 H       1  ZINC000892389374    0.1200
     31 H31       -15.4789   -1.3666   59.0737 H       1  ZINC000892389374    0.1000
     32 H32       -14.8468   -3.0043   58.7113 H       1  ZINC000892389374    0.1000
     33 H33       -17.5787   -2.2539   59.4205 H       1  ZINC000892389374    0.1100
     34 H34       -16.9469   -3.8912   59.0582 H       1  ZINC000892389374    0.1100
     35 H35       -12.5304   -3.5761   59.9390 H       1  ZINC000892389374    0.1600
     36 H36        -9.2432   -3.1531   60.9460 H       1  ZINC000892389374    0.4000
     37 H37        -9.1359   -4.0777   58.8124 H       1  ZINC000892389374    0.0900
     38 H38       -10.9055   -3.9051   58.7280 H       1  ZINC000892389374    0.0800
     39 H39        -8.1282   -1.2560   58.9635 H       1  ZINC000892389374    0.1800
     40 H40       -10.7279    1.4270   55.6564 H       1  ZINC000892389374    0.1300
     41 H41        -9.1757    0.9687   54.9156 H       1  ZINC000892389374    0.1400
@<TRIPOS>BOND
     1     1     2    1
     2     1    26    1
     3     1    27    1
     4     1    28    1
     5     2    13   ar
     6     2     3   ar
     7     3     4   ar
     8     3    29    1
     9     4     5   ar
    10     4    30    1
    11     5     6    1
    12     5    12   ar
    13     6    10   am
    14     6     7    1
    15     7     8    1
    16     7    31    1
    17     7    32    1
    18     8     9    1
    19     8    33    1
    20     8    34    1
    21     9    10    1
    22    10    11    2
    23    12    13   ar
    24    12    35    1
    25    13    14    1
    26    14    15    1
    27    14    36    1
    28    15    16    1
    29    15    37    1
    30    15    38    1
    31    16    25    1
    32    16    17    2
    33    17    18    1
    34    17    39    1
    35    18    19    2
    36    19    20    1
    37    19    25    1
    38    20    21    1
    39    20    40    1
    40    20    41    1
    41    21    22    1
    42    21    23    1
    43    21    24    1
@<TRIPOS>SUBSTRUCTURE
     1 ZINC000892389374        1 TEMP              0 ****  ****    0 ROOT


##########                                Name:    ZINC000652498551
##########                DOCK_Rotatable_Bonds:                   6
##########                         Heavy_Atoms:                  23
##########                    Molecular_Weight:             388.277
##########                DOCK_Rotatable_Bonds:                   6
##########                       Formal_Charge:          -0.0400001
##########                     HBond_Acceptors:                   5
##########                        HBond_Donors:                   1
##########                         Heavy_Atoms:                  23
##########                          Grid_Score:          -30.373085
##########                     Grid_vdw_energy:          -26.863407
##########                      Grid_es_energy:           -3.509677
##########           Internal_energy_repulsive:           22.751373

@<TRIPOS>MOLECULE
ZINC000652498551
 46 47 1 0 0
SMALL
USER_CHARGES


@<TRIPOS>ATOM
      1 C1          2.3549    1.4484   51.0001 C.3     1  ZINC000652498551   -0.1300
      2 C2          2.1530    2.7055   50.1515 C.3     1  ZINC000652498551   -0.1300
      3 C3          2.3340    3.9467   51.0276 C.3     1  ZINC000652498551   -0.1300
      4 C4          3.1656    2.7262   49.0357 C.2     1  ZINC000652498551    0.5000
      5 O5          2.8633    2.3102   47.9302 O.co2   1  ZINC000652498551   -0.7000
      6 O6          4.2873    3.1589   49.2383 O.co2   1  ZINC000652498551   -0.6700
      7 C7          0.7421    2.7002   49.5598 C.3     1  ZINC000652498551   -0.0600
      8 H8          0.6968    3.3943   48.7205 H       1  ZINC000652498551    0.0700
      9 C9         -0.2638    3.1283   50.6322 C.3     1  ZINC000652498551   -0.1500
     10 C10        -1.6791    3.0443   50.0531 C.3     1  ZINC000652498551   -0.1400
     11 C11        -1.9357    1.6214   49.5523 C.3     1  ZINC000652498551   -0.0100
     12 N12        -0.9585    1.2816   48.5111 N.4     1  ZINC000652498551   -0.3800
     13 H13        -1.0144    1.9586   47.7650 H       1  ZINC000652498551    0.4200
     14 C14        -1.2558   -0.0555   47.9802 C.3     1  ZINC000652498551    0.0000
     15 C15        -0.6500   -0.1953   46.5822 C.3     1  ZINC000652498551    0.0200
     16 O16        -1.1697    0.8300   45.7332 O.3     1  ZINC000652498551   -0.3100
     17 C17        -0.2812    1.4811   44.9372 C.ar    1  ZINC000652498551    0.1600
     18 C18        -0.0984    2.8487   45.0749 C.ar    1  ZINC000652498551   -0.2300
     19 C19         0.8069    3.5099   44.2633 C.ar    1  ZINC000652498551    0.1500
     20 F20         0.9857    4.8423   44.3965 F       1  ZINC000652498551   -0.1200
     21 C21         1.5294    2.8059   43.3149 C.ar    1  ZINC000652498551   -0.1600
     22 C22         1.3472    1.4414   43.1767 C.ar    1  ZINC000652498551   -0.0300
     23 Br23        2.3358    0.4829   41.8807 Br      1  ZINC000652498551   -0.0100
     24 C24         0.4481    0.7771   43.9897 C.ar    1  ZINC000652498551   -0.1300
     25 C25         0.3962    1.2903   49.0762 C.3     1  ZINC000652498551   -0.0200
     26 H26         1.6225    1.4335   51.8073 H       1  ZINC000652498551    0.0400
     27 H27         2.2260    0.5642   50.3760 H       1  ZINC000652498551    0.0500
     28 H28         3.3601    1.4522   51.4217 H       1  ZINC000652498551    0.0600
     29 H29         3.3392    3.9505   51.4491 H       1  ZINC000652498551    0.0700
     30 H30         2.1903    4.8423   50.4230 H       1  ZINC000652498551    0.0400
     31 H31         1.6016    3.9318   51.8347 H       1  ZINC000652498551    0.0500
     32 H32        -0.1825    2.4654   51.4936 H       1  ZINC000652498551    0.1300
     33 H33        -0.0556    4.1534   50.9387 H       1  ZINC000652498551    0.0800
     34 H34        -2.4044    3.2941   50.8274 H       1  ZINC000652498551    0.1000
     35 H35        -1.7752    3.7451   49.2238 H       1  ZINC000652498551    0.0700
     36 H36        -1.8396    0.9216   50.3824 H       1  ZINC000652498551    0.1300
     37 H37        -2.9426    1.5581   49.1396 H       1  ZINC000652498551    0.1100
     38 H38        -0.8279   -0.8113   48.6388 H       1  ZINC000652498551    0.1400
     39 H39        -2.3356   -0.1922   47.9236 H       1  ZINC000652498551    0.1500
     40 H40         0.4340   -0.1005   46.6447 H       1  ZINC000652498551    0.1100
     41 H41        -0.9063   -1.1718   46.1712 H       1  ZINC000652498551    0.0900
     42 H42        -0.6622    3.3977   45.8146 H       1  ZINC000652498551    0.1500
     43 H43         2.2359    3.3225   42.6823 H       1  ZINC000652498551    0.1500
     44 H44         0.3067   -0.2880   43.8813 H       1  ZINC000652498551    0.1500
     45 H45         1.1100    0.9823   48.3122 H       1  ZINC000652498551    0.1100
     46 H46         0.4432    0.5978   49.9165 H       1  ZINC000652498551    0.1700
@<TRIPOS>BOND
     1     1     2    1
     2     1    26    1
     3     1    27    1
     4     1    28    1
     5     2     3    1
     6     2     4    1
     7     2     7    1
     8     3    29    1
     9     3    30    1
    10     3    31    1
    11     4     5   ar
    12     4     6   ar
    13     7     8    1
    14     7    25    1
    15     7     9    1
    16     9    10    1
    17     9    32    1
    18     9    33    1
    19    10    11    1
    20    10    34    1
    21    10    35    1
    22    11    12    1
    23    11    36    1
    24    11    37    1
    25    12    13    1
    26    12    14    1
    27    12    25    1
    28    14    15    1
    29    14    38    1
    30    14    39    1
    31    15    16    1
    32    15    40    1
    33    15    41    1
    34    16    17    1
    35    17    24   ar
    36    17    18   ar
    37    18    19   ar
    38    18    42    1
    39    19    20    1
    40    19    21   ar
    41    21    22   ar
    42    21    43    1
    43    22    23    1
    44    22    24   ar
    45    24    44    1
    46    25    45    1
    47    25    46    1
@<TRIPOS>SUBSTRUCTURE
     1 ZINC000652498551        1 TEMP              0 ****  ****    0 ROOT


##########                                Name:    ZINC001284642199
##########                DOCK_Rotatable_Bonds:                   8
##########                         Heavy_Atoms:                  25
##########                    Molecular_Weight:             346.516
##########                DOCK_Rotatable_Bonds:                   8
##########                       Formal_Charge:         -3.8743e-07
##########                     HBond_Acceptors:                   5
##########                        HBond_Donors:                   2
##########                         Heavy_Atoms:                  25
##########                          Grid_Score:          -30.344566
##########                     Grid_vdw_energy:          -29.947428
##########                      Grid_es_energy:           -0.397139
##########           Internal_energy_repulsive:           18.512630

@<TRIPOS>MOLECULE
ZINC001284642199
 59 60 1 0 0
SMALL
USER_CHARGES


@<TRIPOS>ATOM
      1 C1         -6.7294    0.5435   52.2383 C.3     1  ZINC001284642199   -0.1100
      2 C2         -8.1375    0.3462   52.7374 C.ar    1  ZINC001284642199   -0.1900
      3 C3         -9.0019   -0.5273   52.0965 C.ar    1  ZINC001284642199    0.1500
      4 N4        -10.2311   -0.6752   52.5637 N.ar    1  ZINC001284642199   -0.4900
      5 C5        -10.6358   -0.0046   53.6237 C.ar    1  ZINC001284642199    0.3100
      6 C6        -12.0440   -0.2020   54.1229 C.3     1  ZINC001284642199    0.1300
      7 N7        -12.0451   -1.1956   55.2049 N.3     1  ZINC001284642199   -0.6800
      8 C8        -13.4014   -1.7025   55.4526 C.3     1  ZINC001284642199    0.0500
      9 C9        -13.3300   -2.9205   56.3758 C.3     1  ZINC001284642199    0.1600
     10 H10       -12.5906   -3.6239   55.9927 H       1  ZINC001284642199    0.1000
     11 N11       -12.9438   -2.4909   57.7220 N.am    1  ZINC001284642199   -0.7200
     12 C12       -11.7805   -2.9126   58.2562 C.2     1  ZINC001284642199    0.5200
     13 O13       -11.0526   -3.6465   57.6218 O.2     1  ZINC001284642199   -0.5300
     14 C14       -11.3840   -2.4720   59.6418 C.3     1  ZINC001284642199   -0.1100
     15 H15       -11.7417   -3.1994   60.3705 H       1  ZINC001284642199    0.0900
     16 C16        -9.8598   -2.3709   59.7281 C.3     1  ZINC001284642199   -0.1000
     17 C17        -9.4573   -1.9236   61.1348 C.3     1  ZINC001284642199   -0.1100
     18 C18       -10.0768   -0.5566   61.4323 C.3     1  ZINC001284642199   -0.0900
     19 H19        -9.7190    0.1707   60.7035 H       1  ZINC001284642199    0.0700
     20 C20        -9.6743   -0.1094   62.8390 C.3     1  ZINC001284642199   -0.1500
     21 C21       -11.6010   -0.6578   61.3458 C.3     1  ZINC001284642199   -0.1100
     22 C22       -12.0035   -1.1050   59.9392 C.3     1  ZINC001284642199   -0.1100
     23 C23       -14.6997   -3.6000   56.4306 C.3     1  ZINC001284642199   -0.0800
     24 C24       -15.0296   -4.1942   55.0599 C.3     1  ZINC001284642199   -0.1400
     25 C25       -14.6741   -4.7155   57.4774 C.3     1  ZINC001284642199   -0.1400
     26 C26       -15.7653   -2.5695   56.8095 C.3     1  ZINC001284642199   -0.1300
     27 N27        -9.8434    0.8379   54.2556 N.ar    1  ZINC001284642199   -0.5100
     28 C28        -8.5994    1.0334   53.8489 C.ar    1  ZINC001284642199    0.1500
     29 H29        -6.7122    1.3553   51.5111 H       1  ZINC001284642199    0.0800
     30 H30        -6.0784    0.7925   53.0763 H       1  ZINC001284642199    0.0700
     31 H31        -6.3792   -0.3745   51.7664 H       1  ZINC001284642199    0.0700
     32 H32        -8.6767   -1.0796   51.2272 H       1  ZINC001284642199    0.1700
     33 H33       -12.6732   -0.5542   53.3055 H       1  ZINC001284642199    0.1000
     34 H34       -12.4322    0.7447   54.4985 H       1  ZINC001284642199    0.0600
     35 H35       -11.6426   -0.8131   56.0474 H       1  ZINC001284642199    0.3400
     36 H36       -13.8603   -1.9900   54.5065 H       1  ZINC001284642199    0.0900
     37 H37       -14.0000   -0.9235   55.9247 H       1  ZINC001284642199    0.0400
     38 H38       -13.5253   -1.9029   58.2290 H       1  ZINC001284642199    0.3900
     39 H39        -9.5020   -1.6435   58.9994 H       1  ZINC001284642199    0.0700
     40 H40        -9.4183   -3.3447   59.5163 H       1  ZINC001284642199    0.0700
     41 H41        -8.3714   -1.8516   61.1964 H       1  ZINC001284642199    0.0700
     42 H42        -9.8150   -2.6510   61.8637 H       1  ZINC001284642199    0.0600
     43 H43        -8.5884   -0.0373   62.9005 H       1  ZINC001284642199    0.0500
     44 H44       -10.1157    0.8644   63.0509 H       1  ZINC001284642199    0.0500
     45 H45       -10.0320   -0.8367   63.5677 H       1  ZINC001284642199    0.0500
     46 H46       -11.9587   -1.3852   62.0746 H       1  ZINC001284642199    0.0600
     47 H47       -12.0424    0.3160   61.5577 H       1  ZINC001284642199    0.0700
     48 H48       -11.6458   -0.3777   59.2104 H       1  ZINC001284642199    0.0700
     49 H49       -13.0893   -1.1772   59.8776 H       1  ZINC001284642199    0.0600
     50 H50       -14.2703   -4.9283   54.7900 H       1  ZINC001284642199    0.0600
     51 H51       -16.0054   -4.6782   55.0989 H       1  ZINC001284642199    0.0600
     52 H52       -15.0478   -3.3994   54.3142 H       1  ZINC001284642199    0.0500
     53 H53       -14.4393   -4.2922   58.4540 H       1  ZINC001284642199    0.0600
     54 H54       -15.6500   -5.1996   57.5165 H       1  ZINC001284642199    0.0600
     55 H55       -13.9151   -5.4497   57.2075 H       1  ZINC001284642199    0.0600
     56 H56       -15.7836   -1.7747   56.0638 H       1  ZINC001284642199    0.0500
     57 H57       -16.7412   -3.0535   56.8485 H       1  ZINC001284642199    0.0500
     58 H58       -15.5305   -2.1462   57.7860 H       1  ZINC001284642199    0.0600
     59 H59        -7.9540    1.7225   54.3735 H       1  ZINC001284642199    0.1700
@<TRIPOS>BOND
     1     1     2    1
     2     1    29    1
     3     1    30    1
     4     1    31    1
     5     2    28   ar
     6     2     3   ar
     7     3     4   ar
     8     3    32    1
     9     4     5   ar
    10     5     6    1
    11     5    27   ar
    12     6     7    1
    13     6    33    1
    14     6    34    1
    15     7     8    1
    16     7    35    1
    17     8     9    1
    18     8    36    1
    19     8    37    1
    20     9    10    1
    21     9    11    1
    22     9    23    1
    23    11    12   am
    24    11    38    1
    25    12    13    2
    26    12    14    1
    27    14    15    1
    28    14    22    1
    29    14    16    1
    30    16    17    1
    31    16    39    1
    32    16    40    1
    33    17    18    1
    34    17    41    1
    35    17    42    1
    36    18    19    1
    37    18    20    1
    38    18    21    1
    39    20    43    1
    40    20    44    1
    41    20    45    1
    42    21    22    1
    43    21    46    1
    44    21    47    1
    45    22    48    1
    46    22    49    1
    47    23    24    1
    48    23    25    1
    49    23    26    1
    50    24    50    1
    51    24    51    1
    52    24    52    1
    53    25    53    1
    54    25    54    1
    55    25    55    1
    56    26    56    1
    57    26    57    1
    58    26    58    1
    59    27    28   ar
    60    28    59    1
@<TRIPOS>SUBSTRUCTURE
     1 ZINC001284642199        1 TEMP              0 ****  ****    0 ROOT


##########                                Name:    ZINC001070580102
##########                DOCK_Rotatable_Bonds:                   8
##########                         Heavy_Atoms:                  25
##########                    Molecular_Weight:              349.39
##########                DOCK_Rotatable_Bonds:                   8
##########                       Formal_Charge:          -0.0100003
##########                     HBond_Acceptors:                   9
##########                        HBond_Donors:                   3
##########                         Heavy_Atoms:                  25
##########                          Grid_Score:          -30.325308
##########                     Grid_vdw_energy:          -25.087620
##########                      Grid_es_energy:           -5.237688
##########           Internal_energy_repulsive:           18.252480

@<TRIPOS>MOLECULE
ZINC001070580102
 48 50 1 0 0
SMALL
USER_CHARGES


@<TRIPOS>ATOM
      1 C1         -3.8508    6.2815   53.6487 C.3     1  ZINC001070580102   -0.0800
      2 C2         -3.1262    5.3668   52.6952 C.2     1  ZINC001070580102   -0.0100
      3 C3         -3.6446    4.2680   52.1258 C.2     1  ZINC001070580102   -0.1900
      4 C4         -2.5781    3.7081   51.2827 C.2     1  ZINC001070580102   -0.2500
      5 C5         -2.6474    2.4972   50.4455 C.2     1  ZINC001070580102    0.6000
      6 O6         -3.6726    1.8445   50.4041 O.2     1  ZINC001070580102   -0.5300
      7 N7         -1.5745    2.1134   49.7257 N.am    1  ZINC001070580102   -0.7200
      8 C8         -1.6429    0.9087   48.8949 C.3     1  ZINC001070580102    0.2000
      9 C9         -0.7211    1.0610   47.7124 C.2     1  ZINC001070580102    0.2600
     10 N10        -0.9213    1.8353   46.6769 N.2     1  ZINC001070580102   -0.5100
     11 C11         0.0958    1.7211   45.8238 C.2     1  ZINC001070580102    0.2300
     12 C12         0.2275    2.4561   44.5149 C.3     1  ZINC001070580102    0.1400
     13 H13        -0.7428    2.8588   44.2243 H       1  ZINC001070580102    0.0800
     14 C14         0.7249    1.4917   43.4348 C.3     1  ZINC001070580102    0.0800
     15 O15         0.9197    2.2105   42.2140 O.3     1  ZINC001070580102   -0.3800
     16 C16         1.8532    3.2885   42.3231 C.3     1  ZINC001070580102    0.0600
     17 C17         1.3673    4.2711   43.3918 C.3     1  ZINC001070580102    0.0200
     18 N18         1.1909    3.5565   44.6645 N.3     1  ZINC001070580102   -0.5200
     19 C19         0.7786    4.4771   45.7324 C.3     1  ZINC001070580102    0.0600
     20 C20         1.7909    4.4152   46.8780 C.3     1  ZINC001070580102    0.0800
     21 O21         3.0861    4.7694   46.3889 O.3     1  ZINC001070580102   -0.5700
     22 N22         0.9612    0.8689   46.3069 N.2     1  ZINC001070580102   -0.2700
     23 N23         0.4530    0.4295   47.5403 N.pl3   1  ZINC001070580102   -0.4700
     24 C24        -1.5112    4.5442   51.4368 C.2     1  ZINC001070580102    0.0900
     25 C25        -0.1685    4.3921   50.7698 C.3     1  ZINC001070580102   -0.0900
     26 O26        -1.8610    5.5242   52.2756 O.3     1  ZINC001070580102   -0.1700
     27 H27        -3.1881    7.0938   53.9473 H       1  ZINC001070580102    0.0800
     28 H28        -4.7323    6.6937   53.1576 H       1  ZINC001070580102    0.0900
     29 H29        -4.1561    5.7188   54.5308 H       1  ZINC001070580102    0.0900
     30 H30        -4.6416    3.8749   52.2595 H       1  ZINC001070580102    0.1500
     31 H31        -0.7572    2.6346   49.7578 H       1  ZINC001070580102    0.4000
     32 H32        -1.3385    0.0434   49.4837 H       1  ZINC001070580102    0.1000
     33 H33        -2.6648    0.7674   48.5431 H       1  ZINC001070580102    0.1100
     34 H34         1.6691    1.0476   43.7503 H       1  ZINC001070580102    0.0700
     35 H35        -0.0142    0.7055   43.2805 H       1  ZINC001070580102    0.1000
     36 H36         2.8301    2.8966   42.6062 H       1  ZINC001070580102    0.0600
     37 H37         1.9301    3.8019   41.3647 H       1  ZINC001070580102    0.1000
     38 H38         2.1040    5.0643   43.5189 H       1  ZINC001070580102    0.1200
     39 H39         0.4155    4.7034   43.0829 H       1  ZINC001070580102    0.0400
     40 H40         0.7359    5.4930   45.3399 H       1  ZINC001070580102    0.0500
     41 H41        -0.2056    4.1883   46.1012 H       1  ZINC001070580102    0.0800
     42 H42         1.4955    5.1124   47.6620 H       1  ZINC001070580102    0.0500
     43 H43         1.8196    3.4037   47.2832 H       1  ZINC001070580102    0.0600
     44 H44         3.1347    5.6590   46.0128 H       1  ZINC001070580102    0.3800
     45 H45         0.8645   -0.2080   48.1447 H       1  ZINC001070580102    0.4400
     46 H46        -0.1740    4.9216   49.8171 H       1  ZINC001070580102    0.0900
     47 H47         0.6061    4.8097   51.4130 H       1  ZINC001070580102    0.0800
     48 H48         0.0337    3.3351   50.5970 H       1  ZINC001070580102    0.1100
@<TRIPOS>BOND
     1     1     2    1
     2     1    27    1
     3     1    28    1
     4     1    29    1
     5     2    26    1
     6     2     3    2
     7     3     4    1
     8     3    30    1
     9     4     5    1
    10     4    24    2
    11     5     6    2
    12     5     7   am
    13     7     8    1
    14     7    31    1
    15     8     9    1
    16     8    32    1
    17     8    33    1
    18     9    23    1
    19     9    10    2
    20    10    11    1
    21    11    12    1
    22    11    22    2
    23    12    13    1
    24    12    18    1
    25    12    14    1
    26    14    15    1
    27    14    34    1
    28    14    35    1
    29    15    16    1
    30    16    17    1
    31    16    36    1
    32    16    37    1
    33    17    18    1
    34    17    38    1
    35    17    39    1
    36    18    19    1
    37    19    20    1
    38    19    40    1
    39    19    41    1
    40    20    21    1
    41    20    42    1
    42    20    43    1
    43    21    44    1
    44    22    23    1
    45    23    45    1
    46    24    25    1
    47    24    26    1
    48    25    46    1
    49    25    47    1
    50    25    48    1
@<TRIPOS>SUBSTRUCTURE
     1 ZINC001070580102        1 TEMP              0 ****  ****    0 ROOT


##########                                Name:    ZINC000375302598
##########                DOCK_Rotatable_Bonds:                   8
##########                         Heavy_Atoms:                  27
##########                    Molecular_Weight:             368.479
##########                DOCK_Rotatable_Bonds:                   8
##########                       Formal_Charge:               -0.02
##########                     HBond_Acceptors:                   6
##########                        HBond_Donors:                   1
##########                         Heavy_Atoms:                  27
##########                          Grid_Score:          -30.310408
##########                     Grid_vdw_energy:          -30.154303
##########                      Grid_es_energy:           -0.156105
##########           Internal_energy_repulsive:            6.170833

@<TRIPOS>MOLECULE
ZINC000375302598
 55 58 1 0 0
SMALL
USER_CHARGES


@<TRIPOS>ATOM
      1 C1         -6.3379    3.3607   54.8095 C.3     1  ZINC000375302598   -0.1500
      2 C2         -6.3595    3.3169   56.3388 C.3     1  ZINC000375302598   -0.0300
      3 C3         -7.4526    2.3874   56.7994 C.2     1  ZINC000375302598    0.1800
      4 N4         -8.3167    2.6133   57.7594 N.2     1  ZINC000375302598   -0.4700
      5 C5         -9.0921    1.5156   57.8142 C.2     1  ZINC000375302598    0.1800
      6 C6        -10.2420    1.2821   58.7599 C.3     1  ZINC000375302598    0.1500
      7 N7        -10.1263   -0.0581   59.3500 N.3     1  ZINC000375302598   -0.5300
      8 C8        -10.0125    0.0187   60.8121 C.3     1  ZINC000375302598    0.0500
      9 C9         -9.7484   -1.3782   61.3785 C.3     1  ZINC000375302598   -0.1100
     10 C10       -10.8991   -2.3089   60.9857 C.3     1  ZINC000375302598   -0.1300
     11 C11       -11.0272   -2.3334   59.4600 C.3     1  ZINC000375302598    0.1500
     12 H12       -10.1121   -2.7347   59.0244 H       1  ZINC000375302598    0.1000
     13 N13       -12.1619   -3.1775   59.0779 N.am    1  ZINC000375302598   -0.7300
     14 C14       -12.2457   -3.6674   57.8251 C.2     1  ZINC000375302598    0.5200
     15 O15       -11.3825   -3.4081   57.0137 O.2     1  ZINC000375302598   -0.5300
     16 C16       -13.4121   -4.5372   57.4326 C.3     1  ZINC000375302598   -0.1100
     17 C17       -13.7875   -4.2598   55.9756 C.3     1  ZINC000375302598   -0.1200
     18 H18       -13.1304   -4.7044   55.2281 H       1  ZINC000375302598    0.1200
     19 C19       -14.4061   -2.8983   55.6524 C.3     1  ZINC000375302598   -0.1700
     20 C20       -15.2759   -4.1577   55.6367 C.3     1  ZINC000375302598   -0.1100
     21 H21       -15.9879   -4.2879   56.4518 H       1  ZINC000375302598    0.1100
     22 C22       -15.7220   -4.6787   54.2948 C.ar    1  ZINC000375302598   -0.0500
     23 C23       -15.7872   -6.0411   54.0692 C.ar    1  ZINC000375302598   -0.1200
     24 C24       -16.1964   -6.5190   52.8384 C.ar    1  ZINC000375302598   -0.1200
     25 C25       -16.5409   -5.6347   51.8333 C.ar    1  ZINC000375302598   -0.1300
     26 C26       -16.4765   -4.2725   52.0591 C.ar    1  ZINC000375302598   -0.1200
     27 C27       -16.0714   -3.7945   53.2914 C.ar    1  ZINC000375302598   -0.1100
     28 C28       -11.2541   -0.9088   58.9491 C.3     1  ZINC000375302598    0.0500
     29 N29        -8.6677    0.6935   56.9017 N.2     1  ZINC000375302598   -0.3800
     30 O30        -7.7301    1.1778   56.3036 O.3     1  ZINC000375302598    0.0800
     31 H31        -7.2993    3.7204   54.4427 H       1  ZINC000375302598    0.0600
     32 H32        -5.5473    4.0329   54.4764 H       1  ZINC000375302598    0.0800
     33 H33        -6.1519    2.3598   54.4200 H       1  ZINC000375302598    0.0600
     34 H34        -5.3982    2.9571   56.7056 H       1  ZINC000375302598    0.1100
     35 H35        -6.5455    4.3178   56.7283 H       1  ZINC000375302598    0.1000
     36 H36       -10.2192    2.0310   59.5515 H       1  ZINC000375302598    0.0700
     37 H37       -11.1825    1.3589   58.2142 H       1  ZINC000375302598    0.1100
     38 H38        -9.1880    0.6803   61.0779 H       1  ZINC000375302598    0.0800
     39 H39       -10.9406    0.4099   61.2285 H       1  ZINC000375302598    0.0400
     40 H40        -8.8132   -1.7645   60.9731 H       1  ZINC000375302598    0.0700
     41 H41        -9.6795   -1.3233   62.4650 H       1  ZINC000375302598    0.0700
     42 H42       -10.6941   -3.3156   61.3502 H       1  ZINC000375302598    0.0700
     43 H43       -11.8282   -1.9442   61.4234 H       1  ZINC000375302598    0.0600
     44 H44       -12.8529   -3.3840   59.7266 H       1  ZINC000375302598    0.4000
     45 H45       -13.1366   -5.5860   57.5436 H       1  ZINC000375302598    0.1000
     46 H46       -14.2636   -4.3152   58.0758 H       1  ZINC000375302598    0.1000
     47 H47       -14.5456   -2.2002   56.4777 H       1  ZINC000375302598    0.1000
     48 H48       -14.1564   -2.4473   54.6920 H       1  ZINC000375302598    0.1000
     49 H49       -15.5181   -6.7319   54.8546 H       1  ZINC000375302598    0.1200
     50 H50       -16.2467   -7.5833   52.6619 H       1  ZINC000375302598    0.1200
     51 H51       -16.8599   -6.0081   50.8713 H       1  ZINC000375302598    0.1200
     52 H52       -16.7453   -3.5816   51.2738 H       1  ZINC000375302598    0.1200
     53 H53       -16.0212   -2.7302   53.4679 H       1  ZINC000375302598    0.1200
     54 H54       -12.1765   -0.5132   59.3743 H       1  ZINC000375302598    0.0400
     55 H55       -11.3315   -0.9208   57.8619 H       1  ZINC000375302598    0.0900
@<TRIPOS>BOND
     1     1     2    1
     2     1    31    1
     3     1    32    1
     4     1    33    1
     5     2     3    1
     6     2    34    1
     7     2    35    1
     8     3    30    1
     9     3     4    2
    10     4     5    1
    11     5     6    1
    12     5    29    2
    13     6     7    1
    14     6    36    1
    15     6    37    1
    16     7    28    1
    17     7     8    1
    18     8     9    1
    19     8    38    1
    20     8    39    1
    21     9    10    1
    22     9    40    1
    23     9    41    1
    24    10    11    1
    25    10    42    1
    26    10    43    1
    27    11    12    1
    28    11    13    1
    29    11    28    1
    30    13    14   am
    31    13    44    1
    32    14    15    2
    33    14    16    1
    34    16    17    1
    35    16    45    1
    36    16    46    1
    37    17    18    1
    38    17    20    1
    39    17    19    1
    40    19    20    1
    41    19    47    1
    42    19    48    1
    43    20    21    1
    44    20    22    1
    45    22    27   ar
    46    22    23   ar
    47    23    24   ar
    48    23    49    1
    49    24    25   ar
    50    24    50    1
    51    25    26   ar
    52    25    51    1
    53    26    27   ar
    54    26    52    1
    55    27    53    1
    56    28    54    1
    57    28    55    1
    58    29    30    1
@<TRIPOS>SUBSTRUCTURE
     1 ZINC000375302598        1 TEMP              0 ****  ****    0 ROOT


##########                                Name:     oleObject15.pdb
##########                DOCK_Rotatable_Bonds:                   9
##########                         Heavy_Atoms:                  29
##########                    Molecular_Weight:             395.545
##########                DOCK_Rotatable_Bonds:                   9
##########                       Formal_Charge:         0.000700183
##########                     HBond_Acceptors:                   5
##########                        HBond_Donors:                   1
##########                         Heavy_Atoms:                  29
##########                          Grid_Score:          -30.310362
##########                     Grid_vdw_energy:          -29.757891
##########                      Grid_es_energy:           -0.552470
##########           Internal_energy_repulsive:           10.833311

@<TRIPOS>MOLECULE
oleObject15.pdb
 62 64 1 0 0
SMALL
NO_CHARGES


@<TRIPOS>ATOM
      1 O         -11.3149    0.0580   62.8205 O.3     1  UNL        -0.3745
      2 C          -9.9957    0.0833   62.2302 C.3     1  UNL         0.0600
      3 C         -10.1418    0.3025   60.7064 C.3     1  UNL         0.0217
      4 N         -10.2115   -0.9440   59.9085 N.4     1  UNL        -0.3010
      5 C         -11.3036   -1.8661   60.2958 C.3     1  UNL        -0.0010
      6 C         -11.2355   -3.1969   59.5154 C.3     1  UNL        -0.0289
      7 C         -11.1964   -2.9931   57.9818 C.3     1  UNL         0.0382
      8 C         -10.1044   -1.9580   57.6111 C.3     1  UNL        -0.0289
      9 C         -10.1712   -0.6652   58.4573 C.3     1  UNL        -0.0010
     10 C         -12.5876   -2.6094   57.4192 C.2     1  UNL         0.2156
     11 O         -12.8686   -1.4622   57.1230 O.2     1  UNL        -0.2774
     12 N         -13.5390   -3.5967   57.1970 N.am    1  UNL        -0.3025
     13 C         -14.9066   -3.4276   56.6710 C.3     1  UNL         0.0900
     14 C         -15.2919   -4.5039   55.6578 C.ar    1  UNL        -0.0217
     15 C         -14.9341   -5.8529   55.8558 C.ar    1  UNL        -0.0568
     16 C         -15.2856   -6.8279   54.9080 C.ar    1  UNL        -0.0619
     17 C         -16.0005   -6.4633   53.7564 C.ar    1  UNL        -0.0622
     18 C         -16.3658   -5.1231   53.5550 C.ar    1  UNL        -0.0619
     19 C         -16.0144   -4.1483   54.5030 C.ar    1  UNL        -0.0568
     20 C         -15.9369   -3.3494   57.7937 C.ar    1  UNL         0.0652
     21 C         -17.1334   -2.6163   57.6523 C.ar    1  UNL        -0.0383
     22 C         -18.0385   -2.5750   58.7249 C.ar    1  UNL        -0.0588
     23 C         -17.7155   -3.2669   59.9024 C.ar    1  UNL        -0.0438
     24 C         -16.5008   -3.9715   59.9595 C.ar    1  UNL         0.0272
     25 N         -15.6303   -4.0121   58.9304 N.ar    1  UNL        -0.2590
     26 C         -11.7250    1.1311   63.7010 C.3     1  UNL         0.0599
     27 C         -13.1894    0.9025   64.1523 C.3     1  UNL        -0.0364
     28 C         -10.7765    1.0354   64.9175 C.3     1  UNL        -0.0364
     29 C         -11.5474    2.4972   62.9924 C.3     1  UNL        -0.0364
     30 H          -9.4824   -0.8706   62.4013 H       1  UNL         0.0581
     31 H          -9.3807    0.8822   62.6585 H       1  UNL         0.0581
     32 H          -9.2809    0.8956   60.3724 H       1  UNL         0.0455
     33 H         -11.0419    0.9035   60.5247 H       1  UNL         0.0455
     34 H         -12.2749   -1.3874   60.1163 H       1  UNL         0.0431
     35 H         -11.2420   -2.1059   61.3637 H       1  UNL         0.0431
     36 H         -12.0849   -3.8309   59.7945 H       1  UNL         0.0288
     37 H         -10.3294   -3.7342   59.8246 H       1  UNL         0.0288
     38 H         -10.8786   -3.9387   57.5348 H       1  UNL         0.0402
     39 H         -10.1679   -1.7095   56.5441 H       1  UNL         0.0288
     40 H          -9.1197   -2.4177   57.7670 H       1  UNL         0.0288
     41 H         -11.0576   -0.0863   58.1692 H       1  UNL         0.0431
     42 H          -9.2914   -0.0523   58.2226 H       1  UNL         0.0431
     43 H         -13.2188   -4.5477   57.3278 H       1  UNL         0.1504
     44 H         -14.9303   -2.4562   56.1609 H       1  UNL         0.0624
     45 H         -14.3744   -6.1472   56.7387 H       1  UNL         0.0626
     46 H         -15.0020   -7.8646   55.0654 H       1  UNL         0.0623
     47 H         -16.2719   -7.2173   53.0230 H       1  UNL         0.0623
     48 H         -16.9213   -4.8396   52.6655 H       1  UNL         0.0623
     49 H         -16.3030   -3.1139   54.3383 H       1  UNL         0.0626
     50 H         -17.3577   -2.0887   56.7302 H       1  UNL         0.0643
     51 H         -18.9681   -2.0189   58.6451 H       1  UNL         0.0624
     52 H         -18.3901   -3.2582   60.7533 H       1  UNL         0.0639
     53 H         -16.2153   -4.5197   60.8565 H       1  UNL         0.0840
     54 H         -13.3259   -0.1187   64.5308 H       1  UNL         0.0260
     55 H         -13.8955    1.0601   63.3281 H       1  UNL         0.0260
     56 H         -13.4610    1.5997   64.9549 H       1  UNL         0.0260
     57 H         -10.8690    0.0582   65.4089 H       1  UNL         0.0260
     58 H         -11.0064    1.8110   65.6589 H       1  UNL         0.0260
     59 H          -9.7308    1.1608   64.6085 H       1  UNL         0.0260
     60 H         -12.2655    2.6215   62.1725 H       1  UNL         0.0260
     61 H         -10.5348    2.5946   62.5802 H       1  UNL         0.0260
     62 H         -11.7062    3.3230   63.6973 H       1  UNL         0.0260
@<TRIPOS>BOND
     1     1     2    1
     2     1    26    1
     3     2     3    1
     4     2    30    1
     5     2    31    1
     6     3     4    1
     7     3    32    1
     8     3    33    1
     9     4     5    1
    10     4     9    1
    11     5     6    1
    12     5    34    1
    13     5    35    1
    14     6     7    1
    15     6    36    1
    16     6    37    1
    17     7     8    1
    18     7    10    1
    19     7    38    1
    20     8     9    1
    21     8    39    1
    22     8    40    1
    23     9    41    1
    24     9    42    1
    25    10    11    2
    26    10    12   am
    27    12    13    1
    28    12    43    1
    29    13    14    1
    30    13    20    1
    31    13    44    1
    32    14    15   ar
    33    14    19   ar
    34    15    16   ar
    35    15    45    1
    36    16    17   ar
    37    16    46    1
    38    17    18   ar
    39    17    47    1
    40    18    19   ar
    41    18    48    1
    42    19    49    1
    43    20    21   ar
    44    20    25   ar
    45    21    22   ar
    46    21    50    1
    47    22    23   ar
    48    22    51    1
    49    23    24   ar
    50    23    52    1
    51    24    25   ar
    52    24    53    1
    53    26    27    1
    54    26    28    1
    55    26    29    1
    56    27    54    1
    57    27    55    1
    58    27    56    1
    59    28    57    1
    60    28    58    1
    61    28    59    1
    62    29    60    1
    63    29    61    1
    64    29    62    1
@<TRIPOS>SUBSTRUCTURE
     1 UNL         1 TEMP              0 ****  ****    0 ROOT


##########                                Name:    ZINC000646817380
##########                DOCK_Rotatable_Bonds:                   6
##########                         Heavy_Atoms:                  25
##########                    Molecular_Weight:             347.457
##########                DOCK_Rotatable_Bonds:                   6
##########                       Formal_Charge:           0.0199991
##########                     HBond_Acceptors:                   6
##########                        HBond_Donors:                   1
##########                         Heavy_Atoms:                  25
##########                          Grid_Score:          -30.303793
##########                     Grid_vdw_energy:          -29.545305
##########                      Grid_es_energy:           -0.758487
##########           Internal_energy_repulsive:           70.425224

@<TRIPOS>MOLECULE
ZINC000646817380
 54 56 1 0 0
SMALL
USER_CHARGES


@<TRIPOS>ATOM
      1 C1         -9.7411    2.5067   54.1720 C.3     1  ZINC000646817380   -0.1500
      2 C2         -8.9436    1.2013   54.1442 C.3     1  ZINC000646817380   -0.0100
      3 C3         -9.7538    0.1239   53.4205 C.3     1  ZINC000646817380   -0.1500
      4 C4         -7.6417    1.4234   53.4182 C.2     1  ZINC000646817380   -0.0100
      5 C5         -6.9487    2.5820   53.3379 C.2     1  ZINC000646817380   -0.2200
      6 C6         -5.8144    2.2487   52.5504 C.2     1  ZINC000646817380    0.2400
      7 N7         -4.7788    3.1011   52.1721 N.am    1  ZINC000646817380   -0.6100
      8 C8         -3.7932    2.6500   51.3712 C.2     1  ZINC000646817380    0.5200
      9 O9         -3.8082    1.5019   50.9784 O.2     1  ZINC000646817380   -0.4900
     10 C10        -2.6822    3.5631   50.9673 C.2     1  ZINC000646817380    0.5300
     11 O11        -2.6119    4.6790   51.4391 O.2     1  ZINC000646817380   -0.5100
     12 N12        -1.7577    3.1478   50.0788 N.am    1  ZINC000646817380   -0.5800
     13 C13        -0.6171    3.9396   49.5957 C.3     1  ZINC000646817380    0.1000
     14 C14         0.1474    3.0678   48.5774 C.3     1  ZINC000646817380   -0.1300
     15 C15        -0.9259    2.0447   48.1208 C.3     1  ZINC000646817380   -0.1000
     16 H16        -1.5625    2.4670   47.3431 H       1  ZINC000646817380    0.1000
     17 C17        -0.2764    0.7431   47.6469 C.3     1  ZINC000646817380   -0.0700
     18 H18         0.6656    0.5835   48.1715 H       1  ZINC000646817380    0.0800
     19 C19        -1.2286   -0.4446   47.8976 C.3     1  ZINC000646817380   -0.1300
     20 C20        -1.0157   -1.3675   46.6721 C.3     1  ZINC000646817380   -0.1300
     21 C21        -0.8452   -0.3581   45.5096 C.3     1  ZINC000646817380   -0.1200
     22 C22        -0.0314    0.7985   46.1288 C.3     1  ZINC000646817380   -0.0700
     23 C23        -0.5146    2.1378   45.5685 C.3     1  ZINC000646817380   -0.1600
     24 C24         1.4572    0.6108   45.8294 C.3     1  ZINC000646817380   -0.1400
     25 C25        -1.7193    1.8220   49.4352 C.3     1  ZINC000646817380    0.0900
     26 N26        -5.9370    0.9817   52.2519 N.2     1  ZINC000646817380   -0.3800
     27 O27        -6.9418    0.5094   52.7308 O.3     1  ZINC000646817380    0.1100
     28 H28       -10.6827    2.3461   54.6971 H       1  ZINC000646817380    0.0700
     29 H29        -9.1639    3.2743   54.6875 H       1  ZINC000646817380    0.0600
     30 H30        -9.9449    2.8298   53.1511 H       1  ZINC000646817380    0.0600
     31 H31        -8.7398    0.8782   55.1650 H       1  ZINC000646817380    0.1100
     32 H32        -9.9575    0.4470   52.3996 H       1  ZINC000646817380    0.0600
     33 H33        -9.1856   -0.8060   53.4007 H       1  ZINC000646817380    0.0600
     34 H34       -10.6954   -0.0366   53.9456 H       1  ZINC000646817380    0.0700
     35 H35        -7.1996    3.5387   53.7717 H       1  ZINC000646817380    0.1900
     36 H36        -4.7675    4.0191   52.4852 H       1  ZINC000646817380    0.4300
     37 H37        -0.9751    4.8480   49.1111 H       1  ZINC000646817380    0.0800
     38 H38         0.0366    4.1949   50.4297 H       1  ZINC000646817380    0.0800
     39 H39         0.4899    3.6692   47.7352 H       1  ZINC000646817380    0.0900
     40 H40         0.9849    2.5603   49.0561 H       1  ZINC000646817380    0.0800
     41 H41        -0.9578   -0.9631   48.8173 H       1  ZINC000646817380    0.0700
     42 H42        -2.2625   -0.1018   47.9420 H       1  ZINC000646817380    0.0800
     43 H43        -0.1164   -1.9711   46.7946 H       1  ZINC000646817380    0.0700
     44 H44        -1.8879   -2.0006   46.5091 H       1  ZINC000646817380    0.0700
     45 H45        -0.2944   -0.8137   44.6866 H       1  ZINC000646817380    0.0700
     46 H46        -1.8170   -0.0014   45.1683 H       1  ZINC000646817380    0.0700
     47 H47        -1.5988    2.1156   45.4584 H       1  ZINC000646817380    0.0700
     48 H48        -0.2352    2.9395   46.2521 H       1  ZINC000646817380    0.0600
     49 H49        -0.0540    2.3122   44.5962 H       1  ZINC000646817380    0.0500
     50 H50         1.6159    0.6268   44.7512 H       1  ZINC000646817380    0.0600
     51 H51         2.0253    1.4178   46.2922 H       1  ZINC000646817380    0.0500
     52 H52         1.7910   -0.3456   46.2317 H       1  ZINC000646817380    0.0600
     53 H53        -1.2056    1.1007   50.0707 H       1  ZINC000646817380    0.0900
     54 H54        -2.7310    1.4816   49.2145 H       1  ZINC000646817380    0.1000
@<TRIPOS>BOND
     1     1     2    1
     2     1    28    1
     3     1    29    1
     4     1    30    1
     5     2     3    1
     6     2     4    1
     7     2    31    1
     8     3    32    1
     9     3    33    1
    10     3    34    1
    11     4    27    1
    12     4     5    2
    13     5     6    1
    14     5    35    1
    15     6     7    1
    16     6    26    2
    17     7     8   am
    18     7    36    1
    19     8     9    2
    20     8    10    1
    21    10    11    2
    22    10    12   am
    23    12    25    1
    24    12    13    1
    25    13    14    1
    26    13    37    1
    27    13    38    1
    28    14    15    1
    29    14    39    1
    30    14    40    1
    31    15    16    1
    32    15    17    1
    33    15    25    1
    34    17    18    1
    35    17    22    1
    36    17    19    1
    37    19    20    1
    38    19    41    1
    39    19    42    1
    40    20    21    1
    41    20    43    1
    42    20    44    1
    43    21    22    1
    44    21    45    1
    45    21    46    1
    46    22    23    1
    47    22    24    1
    48    23    47    1
    49    23    48    1
    50    23    49    1
    51    24    50    1
    52    24    51    1
    53    24    52    1
    54    25    53    1
    55    25    54    1
    56    26    27    1
@<TRIPOS>SUBSTRUCTURE
     1 ZINC000646817380        1 TEMP              0 ****  ****    0 ROOT


##########                                Name:    ZINC000821214121
##########                DOCK_Rotatable_Bonds:                  10
##########                         Heavy_Atoms:                  23
##########                    Molecular_Weight:             338.434
##########                DOCK_Rotatable_Bonds:                  10
##########                       Formal_Charge:          0.00999954
##########                     HBond_Acceptors:                   9
##########                        HBond_Donors:                   3
##########                         Heavy_Atoms:                  23
##########                          Grid_Score:          -30.293293
##########                     Grid_vdw_energy:          -28.643524
##########                      Grid_es_energy:           -1.649770
##########           Internal_energy_repulsive:            9.555797

@<TRIPOS>MOLECULE
ZINC000821214121
 45 46 1 0 0
SMALL
USER_CHARGES


@<TRIPOS>ATOM
      1 C1         -9.2405   -1.1360   62.1376 C.3     1  ZINC000821214121   -0.1500
      2 C2         -9.9638   -0.0747   61.3061 C.3     1  ZINC000821214121    0.0500
      3 N3         -9.8076   -0.3813   59.8780 N.3     1  ZINC000821214121   -0.5200
      4 C4        -10.7434   -1.4338   59.4601 C.3     1  ZINC000821214121    0.0600
      5 C5         -9.9596   -2.6923   59.0819 C.3     1  ZINC000821214121   -0.1200
      6 C6        -10.9370   -3.8258   58.7649 C.3     1  ZINC000821214121    0.0800
      7 O7        -10.2049   -5.0116   58.4487 O.3     1  ZINC000821214121   -0.5700
      8 C8         -9.9742    0.8267   59.0589 C.3     1  ZINC000821214121    0.0400
      9 C9         -9.3656    0.5996   57.6991 C.2     1  ZINC000821214121    0.5000
     10 O10        -8.3187   -0.0047   57.5965 O.2     1  ZINC000821214121   -0.4800
     11 N11        -9.9841    1.0678   56.5971 N.am    1  ZINC000821214121   -0.6300
     12 C12        -9.4220    0.8564   55.3395 C.2     1  ZINC000821214121    0.0800
     13 C13       -10.0274    0.2077   54.3047 C.2     1  ZINC000821214121   -0.1000
     14 C14       -11.3920   -0.3642   54.3985 C.2     1  ZINC000821214121    0.2900
     15 N15       -12.4768    0.0987   53.8044 N.2     1  ZINC000821214121   -0.3300
     16 N16       -13.5203   -0.7613   54.1841 N.pl3   1  ZINC000821214121   -0.2900
     17 N17       -13.0114   -1.6580   54.9579 N.2     1  ZINC000821214121    0.0200
     18 N18       -11.7506   -1.4478   55.0958 N.2     1  ZINC000821214121   -0.2900
     19 C19        -9.2493    0.1298   53.1497 C.2     1  ZINC000821214121   -0.0500
     20 C20        -9.7331   -0.5458   51.8925 C.3     1  ZINC000821214121   -0.1000
     21 C21        -8.0504    0.6954   53.2395 C.2     1  ZINC000821214121   -0.2400
     22 C22        -7.0333    0.7399   52.1283 C.3     1  ZINC000821214121   -0.0800
     23 S23        -7.8237    1.3911   54.8375 S.3     1  ZINC000821214121    0.2600
     24 H24        -9.6012   -2.1256   61.8568 H       1  ZINC000821214121    0.0700
     25 H25        -8.1682   -1.0740   61.9525 H       1  ZINC000821214121    0.0500
     26 H26        -9.4371   -0.9645   63.1960 H       1  ZINC000821214121    0.0600
     27 H27       -11.0231   -0.0713   61.5633 H       1  ZINC000821214121    0.0900
     28 H28        -9.5358    0.9055   61.5163 H       1  ZINC000821214121    0.0400
     29 H29       -11.4234   -1.6622   60.2808 H       1  ZINC000821214121    0.0400
     30 H30       -11.3159   -1.0899   58.5987 H       1  ZINC000821214121    0.0800
     31 H31        -9.3441   -2.4875   58.2060 H       1  ZINC000821214121    0.0800
     32 H32        -9.3203   -2.9860   59.9145 H       1  ZINC000821214121    0.0700
     33 H33       -11.5720   -4.0110   59.6311 H       1  ZINC000821214121    0.0400
     34 H34       -11.5567   -3.5437   57.9137 H       1  ZINC000821214121    0.0500
     35 H35        -9.6950   -5.3682   59.1890 H       1  ZINC000821214121    0.3800
     36 H36       -11.0360    1.0478   58.9494 H       1  ZINC000821214121    0.0700
     37 H37        -9.4765    1.6662   59.5442 H       1  ZINC000821214121    0.1200
     38 H38       -10.8207    1.5520   56.6792 H       1  ZINC000821214121    0.4200
     39 H39       -14.4497   -0.6931   53.9148 H       1  ZINC000821214121    0.4700
     40 H40       -10.2451    0.1820   51.2629 H       1  ZINC000821214121    0.0700
     41 H41        -8.8819   -0.9590   51.3515 H       1  ZINC000821214121    0.0700
     42 H42       -10.4222   -1.3489   52.1536 H       1  ZINC000821214121    0.0900
     43 H43        -7.1837    1.6409   51.5339 H       1  ZINC000821214121    0.0700
     44 H44        -6.0300    0.7489   52.5542 H       1  ZINC000821214121    0.0700
     45 H45        -7.1506   -0.1382   51.4932 H       1  ZINC000821214121    0.0800
@<TRIPOS>BOND
     1     1     2    1
     2     1    24    1
     3     1    25    1
     4     1    26    1
     5     2     3    1
     6     2    27    1
     7     2    28    1
     8     3     4    1
     9     3     8    1
    10     4     5    1
    11     4    29    1
    12     4    30    1
    13     5     6    1
    14     5    31    1
    15     5    32    1
    16     6     7    1
    17     6    33    1
    18     6    34    1
    19     7    35    1
    20     8     9    1
    21     8    36    1
    22     8    37    1
    23     9    10    2
    24     9    11   am
    25    11    12    1
    26    11    38    1
    27    12    23    1
    28    12    13    2
    29    13    14    1
    30    13    19    1
    31    14    18    1
    32    14    15    2
    33    15    16    1
    34    16    17    1
    35    16    39    1
    36    17    18    2
    37    19    20    1
    38    19    21    2
    39    20    40    1
    40    20    41    1
    41    20    42    1
    42    21    22    1
    43    21    23    1
    44    22    43    1
    45    22    44    1
    46    22    45    1
@<TRIPOS>SUBSTRUCTURE
     1 ZINC000821214121        1 TEMP              0 ****  ****    0 ROOT


##########                                Name:    ZINC000566738344
##########                DOCK_Rotatable_Bonds:                   5
##########                         Heavy_Atoms:                  23
##########                    Molecular_Weight:             352.478
##########                DOCK_Rotatable_Bonds:                   5
##########                       Formal_Charge:           0.0100005
##########                     HBond_Acceptors:                   7
##########                        HBond_Donors:                   0
##########                         Heavy_Atoms:                  23
##########                          Grid_Score:          -30.202772
##########                     Grid_vdw_energy:          -29.526274
##########                      Grid_es_energy:           -0.676498
##########           Internal_energy_repulsive:           27.209743

@<TRIPOS>MOLECULE
ZINC000566738344
 43 44 1 0 0
SMALL
USER_CHARGES


@<TRIPOS>ATOM
      1 C1        -16.7727   -4.4598   53.2217 C.3     1  ZINC000566738344   -0.1300
      2 C2        -15.9518   -4.9527   54.3854 C.ar    1  ZINC000566738344   -0.0100
      3 C3        -15.6197   -4.0930   55.4071 C.ar    1  ZINC000566738344   -0.1000
      4 C4        -14.8606   -4.5476   56.4826 C.ar    1  ZINC000566738344   -0.0500
      5 S5        -14.4369   -3.4434   57.7886 S.3     1  ZINC000566738344   -0.0300
      6 C6        -12.6231   -3.4754   57.7779 C.3     1  ZINC000566738344   -0.1200
      7 H7        -12.2770   -4.5007   57.9087 H       1  ZINC000566738344    0.1200
      8 C8        -12.1113   -2.9307   56.4430 C.3     1  ZINC000566738344   -0.1300
      9 C9        -12.0990   -2.6210   58.9033 C.2     1  ZINC000566738344    0.5200
     10 O10       -12.8317   -1.8262   59.4531 O.2     1  ZINC000566738344   -0.5000
     11 N11       -10.8161   -2.7401   59.2987 N.am    1  ZINC000566738344   -0.6000
     12 C12        -9.9306   -3.6988   58.6333 C.3     1  ZINC000566738344    0.0600
     13 C13       -10.3071   -1.9107   60.3938 C.3     1  ZINC000566738344    0.1500
     14 H14        -9.2542   -2.1354   60.5647 H       1  ZINC000566738344    0.1300
     15 C15       -10.4667   -0.4232   60.0335 C.3     1  ZINC000566738344   -0.1300
     16 C16       -10.2274    0.3775   61.3396 C.3     1  ZINC000566738344   -0.5900
     17 S17       -11.1401   -0.6096   62.5854 S.o2    1  ZINC000566738344    2.4000
     18 O18       -10.3532   -0.7254   63.7629 O.2     1  ZINC000566738344   -0.9300
     19 O19       -12.4778   -0.1382   62.6717 O.2     1  ZINC000566738344   -0.9300
     20 C20       -11.1126   -2.1950   61.6770 C.3     1  ZINC000566738344   -0.6200
     21 C21       -14.4360   -5.8729   56.5282 C.ar    1  ZINC000566738344   -0.1400
     22 C22       -14.7649   -6.7378   55.5094 C.ar    1  ZINC000566738344   -0.0400
     23 C23       -15.5314   -6.2858   54.4308 C.ar    1  ZINC000566738344   -0.0400
     24 C24       -15.8753   -7.1832   53.3691 C.1     1  ZINC000566738344    0.2500
     25 N25       -16.1482   -7.8950   52.5269 N.1     1  ZINC000566738344   -0.4100
     26 H26       -17.8318   -4.5955   53.4410 H       1  ZINC000566738344    0.0800
     27 H27       -16.5687   -3.4021   53.0553 H       1  ZINC000566738344    0.0800
     28 H28       -16.5115   -5.0255   52.3273 H       1  ZINC000566738344    0.0700
     29 H29       -15.9477   -3.0646   55.3747 H       1  ZINC000566738344    0.1400
     30 H30       -12.3817   -1.8786   56.3521 H       1  ZINC000566738344    0.0800
     31 H31       -11.0267   -3.0319   56.4011 H       1  ZINC000566738344    0.0800
     32 H32       -12.5606   -3.4933   55.6247 H       1  ZINC000566738344    0.0900
     33 H33        -9.4355   -3.2131   57.7923 H       1  ZINC000566738344    0.0700
     34 H34        -9.1810   -4.0528   59.3410 H       1  ZINC000566738344    0.0800
     35 H35       -10.5162   -4.5438   58.2713 H       1  ZINC000566738344    0.0800
     36 H36        -9.7299   -0.1400   59.2818 H       1  ZINC000566738344    0.1100
     37 H37       -11.4732   -0.2356   59.6597 H       1  ZINC000566738344    0.0900
     38 H38        -9.1651    0.4171   61.5800 H       1  ZINC000566738344    0.1400
     39 H39       -10.6448    1.3813   61.2599 H       1  ZINC000566738344    0.1400
     40 H40       -12.1271   -2.5061   61.4277 H       1  ZINC000566738344    0.1400
     41 H41       -10.6155   -2.9625   62.2703 H       1  ZINC000566738344    0.1500
     42 H42       -13.8478   -6.2225   57.3638 H       1  ZINC000566738344    0.1200
     43 H43       -14.4350   -7.7655   55.5452 H       1  ZINC000566738344    0.1400
@<TRIPOS>BOND
     1     1     2    1
     2     1    26    1
     3     1    27    1
     4     1    28    1
     5     2    23   ar
     6     2     3   ar
     7     3     4   ar
     8     3    29    1
     9     4     5    1
    10     4    21   ar
    11     5     6    1
    12     6     7    1
    13     6     8    1
    14     6     9    1
    15     8    30    1
    16     8    31    1
    17     8    32    1
    18     9    10    2
    19     9    11   am
    20    11    12    1
    21    11    13    1
    22    12    33    1
    23    12    34    1
    24    12    35    1
    25    13    14    1
    26    13    20    1
    27    13    15    1
    28    15    16    1
    29    15    36    1
    30    15    37    1
    31    16    17    1
    32    16    38    1
    33    16    39    1
    34    17    18    2
    35    17    19    2
    36    17    20    1
    37    20    40    1
    38    20    41    1
    39    21    22   ar
    40    21    42    1
    41    22    23   ar
    42    22    43    1
    43    23    24    1
    44    24    25    3
@<TRIPOS>SUBSTRUCTURE
     1 ZINC000566738344        1 TEMP              0 ****  ****    0 ROOT


##########                                Name:    ZINC000193795672
##########                DOCK_Rotatable_Bonds:                  10
##########                         Heavy_Atoms:                  23
##########                    Molecular_Weight:              332.47
##########                DOCK_Rotatable_Bonds:                  10
##########                       Formal_Charge:        -2.98023e-07
##########                     HBond_Acceptors:                   6
##########                        HBond_Donors:                   3
##########                         Heavy_Atoms:                  23
##########                          Grid_Score:          -30.181938
##########                     Grid_vdw_energy:          -29.224846
##########                      Grid_es_energy:           -0.957093
##########           Internal_energy_repulsive:           10.204224

@<TRIPOS>MOLECULE
ZINC000193795672
 47 48 1 0 0
SMALL
USER_CHARGES


@<TRIPOS>ATOM
      1 C1         -1.1404    0.2607   44.8041 C.3     1  <0>        -0.1000
      2 C2         -1.1082    0.8582   46.1873 C.ar    1  <0>        -0.2000
      3 C3         -1.1303    0.0370   47.3065 C.ar    1  <0>        -0.0300
      4 C4         -1.0990    0.6257   48.5580 C.ar    1  <0>        -0.2400
      5 C5         -1.0466    2.0125   48.6521 C.ar    1  <0>         0.4000
      6 N6         -1.0146    2.6172   49.9033 N.pl3   1  <0>        -0.7300
      7 C7         -1.0482    4.0778   50.0121 C.3     1  <0>         0.1300
      8 C8         -1.0755    4.4788   51.4884 C.3     1  <0>        -0.1400
      9 C9         -2.4398    5.0824   51.8277 C.3     1  <0>         0.1400
     10 N10        -3.3936    4.0065   52.1087 N.am    1  <0>        -0.7500
     11 C11        -4.5328    4.2734   52.7774 C.2     1  <0>         0.7100
     12 O12        -4.7698    5.4076   53.1461 O.2     1  <0>        -0.5900
     13 N13        -5.4095    3.2833   53.0374 N.am    1  <0>        -0.7400
     14 C14        -6.6470    3.5732   53.7658 C.3     1  <0>         0.1700
     15 H15        -6.4689    4.3783   54.4787 H       1  <0>         0.0900
     16 C16        -7.7335    3.9992   52.7763 C.3     1  <0>        -0.1700
     17 C17        -7.1032    2.3197   54.5154 C.3     1  <0>        -0.0600
     18 C18        -7.4688    1.2462   53.5230 C.2     1  <0>        -0.1700
     19 C19        -6.6191    0.3610   52.9999 C.2     1  <0>        -0.1400
     20 C20        -7.1846   -0.5331   52.1072 C.2     1  <0>        -0.1300
     21 C21        -8.4936   -0.3740   51.9054 C.2     1  <0>        -0.2100
     22 S22        -9.0827    0.9639   52.8833 S.3     1  <0>         0.0900
     23 N23        -1.0265    2.7617   47.5604 N.ar    1  <0>        -0.5400
     24 C24        -1.0506    2.2275   46.3542 C.ar    1  <0>         0.1500
     25 H25        -0.1214    0.0742   44.4651 H       1  <0>         0.0700
     26 H26        -1.6934   -0.6783   44.8267 H       1  <0>         0.0600
     27 H27        -1.6296    0.9542   44.1201 H       1  <0>         0.0700
     28 H28        -1.1716   -1.0372   47.2025 H       1  <0>         0.1300
     29 H29        -1.1153    0.0168   49.4499 H       1  <0>         0.1300
     30 H30        -0.9702    2.0721   50.7045 H       1  <0>         0.4000
     31 H31        -0.1611    4.4979   49.5379 H       1  <0>         0.0700
     32 H32        -1.9406    4.4587   49.5156 H       1  <0>         0.0700
     33 H33        -0.9038    3.5981   52.1073 H       1  <0>         0.0800
     34 H34        -0.2948    5.2150   51.6795 H       1  <0>         0.0800
     35 H35        -2.3459    5.7228   52.7046 H       1  <0>         0.0700
     36 H36        -2.7962    5.6724   50.9834 H       1  <0>         0.0700
     37 H37        -3.2051    3.1018   51.8135 H       1  <0>         0.4000
     38 H38        -5.2210    2.3787   52.7422 H       1  <0>         0.3900
     39 H39        -7.9116    3.1942   52.0634 H       1  <0>         0.0600
     40 H40        -8.6542    4.2149   53.3183 H       1  <0>         0.0700
     41 H41        -7.4085    4.8922   52.2423 H       1  <0>         0.0700
     42 H42        -6.2947    1.9641   55.1541 H       1  <0>         0.1000
     43 H43        -7.9721    2.5591   55.1284 H       1  <0>         0.0800
     44 H44        -5.5695    0.3434   53.2534 H       1  <0>         0.1400
     45 H45        -6.6095   -1.3012   51.6113 H       1  <0>         0.1400
     46 H46        -9.0996   -0.9769   51.2454 H       1  <0>         0.1600
     47 H47        -1.0330    2.8700   45.4863 H       1  <0>         0.1500
@<TRIPOS>BOND
     1     1     2    1
     2     1    25    1
     3     1    26    1
     4     1    27    1
     5     2    24   ar
     6     2     3   ar
     7     3     4   ar
     8     3    28    1
     9     4     5   ar
    10     4    29    1
    11     5     6    1
    12     5    23   ar
    13     6     7    1
    14     6    30    1
    15     7     8    1
    16     7    31    1
    17     7    32    1
    18     8     9    1
    19     8    33    1
    20     8    34    1
    21     9    10    1
    22     9    35    1
    23     9    36    1
    24    10    11   am
    25    10    37    1
    26    11    12    2
    27    11    13   am
    28    13    14    1
    29    13    38    1
    30    14    15    1
    31    14    16    1
    32    14    17    1
    33    16    39    1
    34    16    40    1
    35    16    41    1
    36    17    18    1
    37    17    42    1
    38    17    43    1
    39    18    22    1
    40    18    19    2
    41    19    20    1
    42    19    44    1
    43    20    21    2
    44    20    45    1
    45    21    22    1
    46    21    46    1
    47    23    24   ar
    48    24    47    1
@<TRIPOS>SUBSTRUCTURE
     1 <0>         1 TEMP              0 ****  ****    0 ROOT


##########                                Name:    ZINC001707162141
##########                DOCK_Rotatable_Bonds:                   9
##########                         Heavy_Atoms:                  25
##########                    Molecular_Weight:               344.5
##########                DOCK_Rotatable_Bonds:                   9
##########                       Formal_Charge:          -0.0299999
##########                     HBond_Acceptors:                   5
##########                        HBond_Donors:                   1
##########                         Heavy_Atoms:                  25
##########                          Grid_Score:          -30.179491
##########                     Grid_vdw_energy:          -29.694237
##########                      Grid_es_energy:           -0.485254
##########           Internal_energy_repulsive:           80.248123

@<TRIPOS>MOLECULE
ZINC001707162141
 57 59 1 0 0
SMALL
USER_CHARGES


@<TRIPOS>ATOM
      1 C1        -16.1289   -3.1486   57.3138 C.3     1  ZINC001707162141   -0.1800
      2 C2        -14.9205   -3.4902   56.4398 C.3     1  ZINC001707162141    0.1700
      3 H3        -14.8003   -2.7264   55.6714 H       1  ZINC001707162141    0.1000
      4 N4        -13.7118   -3.5408   57.2732 N.3     1  ZINC001707162141   -0.6400
      5 C5        -12.7385   -2.5245   56.8511 C.3     1  ZINC001707162141    0.0700
      6 C6        -11.4608   -2.6668   57.6805 C.3     1  ZINC001707162141    0.1500
      7 H7        -10.9736   -3.6122   57.4420 H       1  ZINC001707162141    0.0700
      8 C8        -11.8094   -2.6273   59.1717 C.3     1  ZINC001707162141   -0.1200
      9 C9        -10.5184   -2.6297   59.9936 C.3     1  ZINC001707162141   -0.0900
     10 H10        -9.9395   -3.5226   59.7575 H       1  ZINC001707162141    0.0700
     11 C11       -10.8632   -2.6252   61.4843 C.3     1  ZINC001707162141   -0.1500
     12 C12        -9.6950   -1.3844   59.6569 C.3     1  ZINC001707162141   -0.1300
     13 C13        -9.3224   -1.4099   58.1712 C.3     1  ZINC001707162141    0.1100
     14 N14       -10.5507   -1.5537   57.3780 N.am    1  ZINC001707162141   -0.6100
     15 C15       -10.8375   -0.6808   56.3919 C.2     1  ZINC001707162141    0.5100
     16 O16       -11.8546   -0.8103   55.7442 O.2     1  ZINC001707162141   -0.4800
     17 C17        -9.8942    0.4561   56.0940 C.3     1  ZINC001707162141   -0.1400
     18 C18       -10.3843    1.2153   54.8595 C.3     1  ZINC001707162141   -0.0900
     19 C19        -9.2892    2.1702   54.3799 C.3     1  ZINC001707162141   -0.0900
     20 C20        -8.0696    1.3630   53.9305 C.3     1  ZINC001707162141   -0.1500
     21 C21        -7.4724    1.6892   52.5602 C.3     1  ZINC001707162141   -0.1800
     22 C22        -8.2565    0.3912   52.7637 C.3     1  ZINC001707162141   -0.1800
     23 C23       -15.1364   -4.8308   55.7860 C.ar    1  ZINC001707162141    0.3500
     24 N24       -14.6348   -5.9093   56.3536 N.ar    1  ZINC001707162141   -0.5000
     25 C25       -14.8088   -7.1039   55.8116 C.ar    1  ZINC001707162141    0.1500
     26 C26       -15.5193   -7.2094   54.6263 C.ar    1  ZINC001707162141   -0.2400
     27 C27       -16.0265   -6.0521   54.0565 C.ar    1  ZINC001707162141    0.1500
     28 N28       -15.8170   -4.8928   54.6592 N.ar    1  ZINC001707162141   -0.5200
     29 H29       -15.9727   -2.1790   57.7867 H       1  ZINC001707162141    0.0600
     30 H30       -17.0256   -3.1111   56.6955 H       1  ZINC001707162141    0.0600
     31 H31       -16.2489   -3.9123   58.0822 H       1  ZINC001707162141    0.0600
     32 H32       -13.9417   -3.4375   58.2501 H       1  ZINC001707162141    0.3300
     33 H33       -12.5039   -2.6624   55.7957 H       1  ZINC001707162141    0.1000
     34 H34       -13.1614   -1.5314   57.0026 H       1  ZINC001707162141    0.0200
     35 H35       -12.3771   -1.7225   59.3887 H       1  ZINC001707162141    0.0700
     36 H36       -12.4062   -3.5023   59.4291 H       1  ZINC001707162141    0.0700
     37 H37       -11.4416   -1.7321   61.7207 H       1  ZINC001707162141    0.0500
     38 H38       -11.4496   -3.5121   61.7243 H       1  ZINC001707162141    0.0600
     39 H39        -9.9438   -2.6281   62.0697 H       1  ZINC001707162141    0.0600
     40 H40        -8.7869   -1.3749   60.2597 H       1  ZINC001707162141    0.0700
     41 H41       -10.2826   -0.4913   59.8694 H       1  ZINC001707162141    0.0700
     42 H42        -8.6599   -2.2528   57.9751 H       1  ZINC001707162141    0.0600
     43 H43        -8.8218   -0.4792   57.9041 H       1  ZINC001707162141    0.0800
     44 H44        -9.8606    1.1334   56.9474 H       1  ZINC001707162141    0.0800
     45 H45        -8.8964    0.0602   55.9047 H       1  ZINC001707162141    0.0800
     46 H46       -10.6205    0.5057   54.0664 H       1  ZINC001707162141    0.0700
     47 H47       -11.2775    1.7857   55.1145 H       1  ZINC001707162141    0.0700
     48 H48        -9.6627    2.7604   53.5431 H       1  ZINC001707162141    0.0600
     49 H49        -9.0045    2.8353   55.1952 H       1  ZINC001707162141    0.0600
     50 H50        -7.3810    1.0709   54.7234 H       1  ZINC001707162141    0.1000
     51 H51        -7.9484    2.4788   51.9788 H       1  ZINC001707162141    0.0900
     52 H52        -6.3906    1.6118   52.4514 H       1  ZINC001707162141    0.0900
     53 H53        -7.6906   -0.5400   52.7887 H       1  ZINC001707162141    0.0900
     54 H54        -9.2483    0.3270   52.3162 H       1  ZINC001707162141    0.0900
     55 H55       -14.3987   -7.9843   56.2839 H       1  ZINC001707162141    0.1600
     56 H56       -15.6743   -8.1701   54.1579 H       1  ZINC001707162141    0.1400
     57 H57       -16.5849   -6.0960   53.1331 H       1  ZINC001707162141    0.1600
@<TRIPOS>BOND
     1     1     2    1
     2     1    29    1
     3     1    30    1
     4     1    31    1
     5     2     3    1
     6     2     4    1
     7     2    23    1
     8     4     5    1
     9     4    32    1
    10     5     6    1
    11     5    33    1
    12     5    34    1
    13     6     7    1
    14     6    14    1
    15     6     8    1
    16     8     9    1
    17     8    35    1
    18     8    36    1
    19     9    10    1
    20     9    11    1
    21     9    12    1
    22    11    37    1
    23    11    38    1
    24    11    39    1
    25    12    13    1
    26    12    40    1
    27    12    41    1
    28    13    14    1
    29    13    42    1
    30    13    43    1
    31    14    15   am
    32    15    16    2
    33    15    17    1
    34    17    18    1
    35    17    44    1
    36    17    45    1
    37    18    19    1
    38    18    46    1
    39    18    47    1
    40    19    20    1
    41    19    48    1
    42    19    49    1
    43    20    22    1
    44    20    21    1
    45    20    50    1
    46    21    22    1
    47    21    51    1
    48    21    52    1
    49    22    53    1
    50    22    54    1
    51    23    28   ar
    52    23    24   ar
    53    24    25   ar
    54    25    26   ar
    55    25    55    1
    56    26    27   ar
    57    26    56    1
    58    27    28   ar
    59    27    57    1
@<TRIPOS>SUBSTRUCTURE
     1 ZINC001707162141        1 TEMP              0 ****  ****    0 ROOT


##########                                Name:    ZINC001513543414
##########                DOCK_Rotatable_Bonds:                   6
##########                         Heavy_Atoms:                  26
##########                    Molecular_Weight:             364.488
##########                DOCK_Rotatable_Bonds:                   6
##########                       Formal_Charge:         -0.00999974
##########                     HBond_Acceptors:                   7
##########                        HBond_Donors:                   0
##########                         Heavy_Atoms:                  26
##########                          Grid_Score:          -30.165602
##########                     Grid_vdw_energy:          -28.381615
##########                      Grid_es_energy:           -1.783988
##########           Internal_energy_repulsive:           13.720909

@<TRIPOS>MOLECULE
ZINC001513543414
 58 61 1 0 0
SMALL
USER_CHARGES


@<TRIPOS>ATOM
      1 C1        -11.9368    0.8059   57.6288 C.3     1  ZINC001513543414   -0.1500
      2 C2        -10.6515   -0.0023   57.4400 C.3     1  ZINC001513543414   -0.1200
      3 C3        -10.7805   -1.3425   58.1664 C.3     1  ZINC001513543414    0.1100
      4 C4        -11.7029   -2.2738   57.3773 C.3     1  ZINC001513543414   -0.1500
      5 C5         -9.3878   -1.9903   58.3218 C.3     1  ZINC001513543414   -0.1500
      6 C6         -9.4659   -2.6020   59.7472 C.3     1  ZINC001513543414   -0.1500
      7 C7        -10.3552   -1.5574   60.4673 C.3     1  ZINC001513543414    0.0700
      8 H8         -9.7527   -0.7115   60.7983 H       1  ZINC001513543414    0.0800
      9 C9        -11.0689   -2.1987   61.6591 C.3     1  ZINC001513543414    0.1100
     10 N10       -11.8922   -1.1926   62.3344 N.pl3   1  ZINC001513543414   -0.4600
     11 C11       -11.4682   -0.2304   63.2086 C.2     1  ZINC001513543414    0.1900
     12 C12       -10.0507   -0.0008   63.6654 C.3     1  ZINC001513543414    0.1800
     13 H13        -9.3999    0.1675   62.8073 H       1  ZINC001513543414    0.1000
     14 C14        -9.9867    1.2070   64.6339 C.3     1  ZINC001513543414   -0.1500
     15 C15        -8.7011    0.8721   65.4384 C.3     1  ZINC001513543414   -0.1500
     16 C16        -8.7469   -0.6698   65.5021 C.3     1  ZINC001513543414    0.0500
     17 O17        -9.5857   -1.1235   64.4313 O.3     1  ZINC001513543414   -0.3500
     18 N18       -12.5171    0.4516   63.5727 N.2     1  ZINC001513543414   -0.2600
     19 N19       -13.5666   -0.0106   62.9926 N.2     1  ZINC001513543414   -0.3100
     20 C20       -13.2404   -1.0174   62.2169 C.2     1  ZINC001513543414    0.3400
     21 N21       -14.1032   -1.7669   61.4331 N.3     1  ZINC001513543414   -0.4500
     22 C22       -14.6343   -0.9626   60.3120 C.3     1  ZINC001513543414    0.0500
     23 C23       -16.0739   -1.4911   60.0932 C.3     1  ZINC001513543414   -0.1500
     24 C24       -16.5301   -1.7698   61.5495 C.3     1  ZINC001513543414    0.0700
     25 H25       -16.8857   -0.8551   62.0238 H       1  ZINC001513543414    0.0800
     26 O26       -17.5425   -2.7781   61.5777 O.3     1  ZINC001513543414   -0.3800
     27 C27       -18.7829   -2.3726   60.9953 C.3     1  ZINC001513543414    0.0300
     28 C28       -15.2379   -2.2699   62.2289 C.3     1  ZINC001513543414    0.0600
     29 O29       -11.3099   -1.1338   59.4810 O.3     1  ZINC001513543414   -0.3600
     30 H30       -11.8449    1.7607   57.1112 H       1  ZINC001513543414    0.0500
     31 H31       -12.7794    0.2497   57.2180 H       1  ZINC001513543414    0.0500
     32 H32       -12.1019    0.9831   58.6916 H       1  ZINC001513543414    0.0600
     33 H33       -10.4865   -0.1795   56.3773 H       1  ZINC001513543414    0.0700
     34 H34        -9.8089    0.5540   57.8507 H       1  ZINC001513543414    0.0600
     35 H35       -11.2805   -2.4512   56.3883 H       1  ZINC001513543414    0.0700
     36 H36       -11.8007   -3.2221   57.9060 H       1  ZINC001513543414    0.0600
     37 H37       -12.6848   -1.8118   57.2754 H       1  ZINC001513543414    0.0700
     38 H38        -9.2361   -2.7683   57.5736 H       1  ZINC001513543414    0.0900
     39 H39        -8.6014   -1.2375   58.2654 H       1  ZINC001513543414    0.0800
     40 H40        -9.9457   -3.5806   59.7289 H       1  ZINC001513543414    0.0800
     41 H41        -8.4782   -2.6594   60.2048 H       1  ZINC001513543414    0.0900
     42 H42       -11.7040   -3.0117   61.3077 H       1  ZINC001513543414    0.1000
     43 H43       -10.3293   -2.5910   62.3572 H       1  ZINC001513543414    0.1100
     44 H44        -9.8753    2.1434   64.0872 H       1  ZINC001513543414    0.0900
     45 H45       -10.8608    1.2357   65.2844 H       1  ZINC001513543414    0.0900
     46 H46        -7.8118    1.2121   64.9076 H       1  ZINC001513543414    0.0800
     47 H47        -8.7460    1.3032   66.4385 H       1  ZINC001513543414    0.0900
     48 H48        -7.7424   -1.0749   65.3801 H       1  ZINC001513543414    0.0700
     49 H49        -9.1617   -0.9881   66.4584 H       1  ZINC001513543414    0.0700
     50 H50       -14.6545    0.0940   60.5792 H       1  ZINC001513543414    0.0600
     51 H51       -14.0331   -1.1170   59.4160 H       1  ZINC001513543414    0.0900
     52 H52       -16.7016   -0.7323   59.6259 H       1  ZINC001513543414    0.0800
     53 H53       -16.0679   -2.4078   59.5037 H       1  ZINC001513543414    0.0900
     54 H54       -19.4980   -3.1929   61.0557 H       1  ZINC001513543414    0.0900
     55 H55       -19.1729   -1.5099   61.5353 H       1  ZINC001513543414    0.0400
     56 H56       -18.6236   -2.1056   59.9505 H       1  ZINC001513543414    0.0400
     57 H57       -15.2253   -3.3597   62.2451 H       1  ZINC001513543414    0.1000
     58 H58       -15.1791   -1.8810   63.2456 H       1  ZINC001513543414    0.0900
@<TRIPOS>BOND
     1     1     2    1
     2     1    30    1
     3     1    31    1
     4     1    32    1
     5     2     3    1
     6     2    33    1
     7     2    34    1
     8     3    29    1
     9     3     4    1
    10     3     5    1
    11     4    35    1
    12     4    36    1
    13     4    37    1
    14     5     6    1
    15     5    38    1
    16     5    39    1
    17     6     7    1
    18     6    40    1
    19     6    41    1
    20     7     8    1
    21     7     9    1
    22     7    29    1
    23     9    10    1
    24     9    42    1
    25     9    43    1
    26    10    20    1
    27    10    11    1
    28    11    12    1
    29    11    18    2
    30    12    13    1
    31    12    17    1
    32    12    14    1
    33    14    15    1
    34    14    44    1
    35    14    45    1
    36    15    16    1
    37    15    46    1
    38    15    47    1
    39    16    17    1
    40    16    48    1
    41    16    49    1
    42    18    19    1
    43    19    20    2
    44    20    21    1
    45    21    28    1
    46    21    22    1
    47    22    23    1
    48    22    50    1
    49    22    51    1
    50    23    24    1
    51    23    52    1
    52    23    53    1
    53    24    25    1
    54    24    26    1
    55    24    28    1
    56    26    27    1
    57    27    54    1
    58    27    55    1
    59    27    56    1
    60    28    57    1
    61    28    58    1
@<TRIPOS>SUBSTRUCTURE
     1 ZINC001513543414        1 TEMP              0 ****  ****    0 ROOT


##########                                Name:    ZINC000052999724
##########                DOCK_Rotatable_Bonds:                   6
##########                         Heavy_Atoms:                  25
##########                    Molecular_Weight:             398.571
##########                DOCK_Rotatable_Bonds:                   6
##########                       Formal_Charge:           0.0399994
##########                     HBond_Acceptors:                   8
##########                        HBond_Donors:                   1
##########                         Heavy_Atoms:                  25
##########                          Grid_Score:          -30.152721
##########                     Grid_vdw_energy:          -26.464695
##########                      Grid_es_energy:           -3.688026
##########           Internal_energy_repulsive:           16.670647

@<TRIPOS>MOLECULE
ZINC000052999724
 47 49 1 0 0
SMALL
USER_CHARGES


@<TRIPOS>ATOM
      1 C1         -9.5114    1.9325   57.2818 C.3     1  ZINC000052999724   -0.1400
      2 C2        -10.5754    1.5934   58.3277 C.3     1  ZINC000052999724   -0.0400
      3 C3        -11.8490    2.3894   58.0361 C.3     1  ZINC000052999724   -0.1400
      4 C4        -10.8811    0.1188   58.2735 C.2     1  ZINC000052999724   -0.0400
      5 C5        -11.5097   -0.5558   59.2820 C.2     1  ZINC000052999724   -0.2600
      6 C6        -11.9728    0.0354   60.5408 C.2     1  ZINC000052999724    0.6000
      7 O7        -13.1444    0.3351   60.6777 O.2     1  ZINC000052999724   -0.5200
      8 N8        -11.1011    0.2471   61.5468 N.am    1  ZINC000052999724   -0.6000
      9 C9        -11.5513    0.8332   62.8166 C.3     1  ZINC000052999724    0.1100
     10 C10       -11.1193   -0.0851   63.9641 C.3     1  ZINC000052999724   -0.1400
     11 C11        -9.6097   -0.3223   63.8816 C.3     1  ZINC000052999724    0.1500
     12 N12        -9.1877   -1.1733   64.9969 N.am    1  ZINC000052999724   -1.1100
     13 S13        -8.7594   -0.4905   66.4435 S.o2    1  ZINC000052999724    2.7200
     14 O14        -9.8439    0.3418   66.8310 O.2     1  ZINC000052999724   -0.9500
     15 O15        -8.2618   -1.5465   67.2540 O.2     1  ZINC000052999724   -0.9400
     16 C16        -7.3964    0.5815   66.1311 C.2     1  ZINC000052999724   -0.8000
     17 C17        -6.1209    0.1998   66.0496 C.2     1  ZINC000052999724    0.0100
     18 C18        -5.2216    1.2209   65.7951 C.2     1  ZINC000052999724   -0.1600
     19 C19        -5.7669    2.4318   65.6700 C.2     1  ZINC000052999724   -0.1700
     20 S20        -7.5104    2.3173   65.8714 S.3     1  ZINC000052999724    0.2100
     21 C21        -9.2714   -1.0116   62.5578 C.3     1  ZINC000052999724   -0.1500
     22 C22        -9.6837   -0.1094   61.3965 C.3     1  ZINC000052999724    0.1100
     23 S23       -11.6746   -2.2463   58.8275 S.3     1  ZINC000052999724    0.2100
     24 C24       -10.9042   -1.9675   57.3309 C.2     1  ZINC000052999724   -0.2400
     25 C25       -10.5606   -0.6806   57.2020 C.2     1  ZINC000052999724   -0.1300
     26 H26        -8.6041    1.3655   57.4895 H       1  ZINC000052999724    0.0600
     27 H27        -9.8820    1.6746   56.2898 H       1  ZINC000052999724    0.0600
     28 H28        -9.2903    2.9991   57.3211 H       1  ZINC000052999724    0.0600
     29 H29       -10.2049    1.8514   59.3198 H       1  ZINC000052999724    0.0800
     30 H30       -12.2196    2.1315   57.0440 H       1  ZINC000052999724    0.0600
     31 H31       -12.6071    2.1479   58.7813 H       1  ZINC000052999724    0.0600
     32 H32       -11.6279    3.4560   58.0754 H       1  ZINC000052999724    0.0600
     33 H33       -11.0995    1.8166   62.9456 H       1  ZINC000052999724    0.0800
     34 H34       -12.6375    0.9256   62.8117 H       1  ZINC000052999724    0.0900
     35 H35       -11.3622    0.3847   64.9172 H       1  ZINC000052999724    0.0900
     36 H36       -11.6422   -1.0381   63.8840 H       1  ZINC000052999724    0.0800
     37 H37        -9.0884    0.6334   63.9366 H       1  ZINC000052999724    0.0900
     38 H38        -9.1591   -2.1367   64.8880 H       1  ZINC000052999724    0.4200
     39 H39        -5.8131   -0.8280   66.1730 H       1  ZINC000052999724    0.1600
     40 H40        -4.1590    1.0502   65.7051 H       1  ZINC000052999724    0.1500
     41 H41        -5.2215    3.3428   65.4717 H       1  ZINC000052999724    0.1800
     42 H42        -8.1991   -1.2013   62.5099 H       1  ZINC000052999724    0.1000
     43 H43        -9.8117   -1.9560   62.4909 H       1  ZINC000052999724    0.0800
     44 H44        -9.5361   -0.6368   60.4540 H       1  ZINC000052999724    0.1000
     45 H45        -9.0813    0.7988   61.4077 H       1  ZINC000052999724    0.0800
     46 H46       -10.7217   -2.7274   56.5856 H       1  ZINC000052999724    0.1700
     47 H47       -10.0607   -0.2996   56.3237 H       1  ZINC000052999724    0.1400
@<TRIPOS>BOND
     1     1     2    1
     2     1    26    1
     3     1    27    1
     4     1    28    1
     5     2     3    1
     6     2     4    1
     7     2    29    1
     8     3    30    1
     9     3    31    1
    10     3    32    1
    11     4    25    1
    12     4     5    2
    13     5     6    1
    14     5    23    1
    15     6     7    2
    16     6     8   am
    17     8    22    1
    18     8     9    1
    19     9    10    1
    20     9    33    1
    21     9    34    1
    22    10    11    1
    23    10    35    1
    24    10    36    1
    25    11    12    1
    26    11    21    1
    27    11    37    1
    28    12    13   am
    29    12    38    1
    30    13    14    2
    31    13    15    2
    32    13    16    1
    33    16    20    1
    34    16    17    2
    35    17    18    1
    36    17    39    1
    37    18    19    2
    38    18    40    1
    39    19    20    1
    40    19    41    1
    41    21    22    1
    42    21    42    1
    43    21    43    1
    44    22    44    1
    45    22    45    1
    46    23    24    1
    47    24    25    2
    48    24    46    1
    49    25    47    1
@<TRIPOS>SUBSTRUCTURE
     1 ZINC000052999724        1 TEMP              0 ****  ****    0 ROOT


##########                                Name:    ZINC000284209281
##########                DOCK_Rotatable_Bonds:                   8
##########                         Heavy_Atoms:                  26
##########                    Molecular_Weight:             353.424
##########                DOCK_Rotatable_Bonds:                   8
##########                       Formal_Charge:          0.00999954
##########                     HBond_Acceptors:                   7
##########                        HBond_Donors:                   1
##########                         Heavy_Atoms:                  26
##########                          Grid_Score:          -30.150454
##########                     Grid_vdw_energy:          -29.038084
##########                      Grid_es_energy:           -1.112370
##########           Internal_energy_repulsive:           13.188109

@<TRIPOS>MOLECULE
ZINC000284209281
 49 51 1 0 0
SMALL
USER_CHARGES


@<TRIPOS>ATOM
      1 O1        -12.5510   -0.9063   54.2815 O.2     1  <0>        -0.5100
      2 C2        -11.5010   -1.0254   54.8781 C.2     1  <0>         0.5100
      3 N3        -10.5444   -0.0842   54.7531 N.am    1  <0>        -0.7000
      4 C4        -10.7699    1.0795   53.8924 C.3     1  <0>         0.1200
      5 C5        -10.2175    0.7945   52.4943 C.3     1  <0>        -0.1000
      6 C6         -8.7144    0.7063   52.5564 C.ar    1  <0>        -0.0400
      7 C7         -7.9774    1.6407   53.2678 C.ar    1  <0>        -0.1700
      8 C8         -6.6005    1.5279   53.3022 C.ar    1  <0>         0.1000
      9 N9         -5.9881    0.5469   52.6685 N.ar    1  <0>        -0.4900
     10 C10        -6.6566   -0.3594   51.9824 C.ar    1  <0>         0.1000
     11 C11        -8.0360   -0.3143   51.9082 C.ar    1  <0>        -0.1700
     12 C12       -11.2710   -2.2126   55.7562 C.2     1  <0>         0.5100
     13 O13       -10.9753   -3.2823   55.2653 O.2     1  <0>        -0.5200
     14 N14       -11.3921   -2.0953   57.0934 N.am    1  <0>        -0.5800
     15 C15       -11.1644   -3.2495   57.9761 C.3     1  <0>         0.0800
     16 C16       -10.1729   -2.8378   59.0697 C.3     1  <0>         0.0400
     17 N17       -10.6655   -1.6286   59.7428 N.3     1  <0>        -0.5300
     18 C18        -9.8342   -1.2993   60.9083 C.3     1  <0>         0.1000
     19 C19       -10.7084   -0.7678   62.0148 C.ar    1  <0>         0.1300
     20 C20       -10.1550    0.0274   63.0002 C.ar    1  <0>        -0.1500
     21 C21       -10.9683    0.5118   64.0135 C.ar    1  <0>        -0.0700
     22 C22       -12.3133    0.1765   63.9973 C.ar    1  <0>        -0.1700
     23 C23       -12.7957   -0.6239   62.9788 C.ar    1  <0>         0.1000
     24 N24       -11.9938   -1.0624   62.0284 N.ar    1  <0>        -0.4800
     25 C25       -10.7410   -0.4942   58.8126 C.3     1  <0>         0.0400
     26 C26       -11.7497   -0.8084   57.7090 C.3     1  <0>         0.1100
     27 H27        -9.7067   -0.1774   55.2332 H       1  <0>         0.4100
     28 H28       -11.8391    1.2811   53.8265 H       1  <0>         0.0800
     29 H29       -10.2620    1.9470   54.3139 H       1  <0>         0.0800
     30 H30       -10.6221   -0.1496   52.1294 H       1  <0>         0.0900
     31 H31       -10.5068    1.5993   51.8184 H       1  <0>         0.0900
     32 H32        -8.4731    2.4470   53.7883 H       1  <0>         0.1400
     33 H33        -6.0192    2.2517   53.8541 H       1  <0>         0.1600
     34 H34        -6.1202   -1.1482   51.4760 H       1  <0>         0.1600
     35 H35        -8.5778   -1.0597   51.3450 H       1  <0>         0.1400
     36 H36       -12.1067   -3.5535   58.4319 H       1  <0>         0.0800
     37 H37       -10.7502   -4.0761   57.3987 H       1  <0>         0.1400
     38 H38       -10.0767   -3.6448   59.7960 H       1  <0>         0.0900
     39 H39        -9.2006   -2.6339   58.6210 H       1  <0>         0.0400
     40 H40        -9.3183   -2.1960   61.2517 H       1  <0>         0.0900
     41 H41        -9.1009   -0.5426   60.6294 H       1  <0>         0.0600
     42 H42        -9.1024    0.2683   62.9815 H       1  <0>         0.1400
     43 H43       -10.5633    1.1352   64.7970 H       1  <0>         0.1400
     44 H44       -12.9758    0.5357   64.7709 H       1  <0>         0.1400
     45 H45       -13.8422   -0.8899   62.9592 H       1  <0>         0.1600
     46 H46       -11.0567    0.3985   59.3524 H       1  <0>         0.1000
     47 H47        -9.7608   -0.3228   58.3675 H       1  <0>         0.0400
     48 H48       -11.7253   -0.0209   56.9556 H       1  <0>         0.1000
     49 H49       -12.7499   -0.8791   58.1364 H       1  <0>         0.0800
@<TRIPOS>BOND
     1     1     2    2
     2     2     3   am
     3     2    12    1
     4     3     4    1
     5     3    27    1
     6     4     5    1
     7     4    28    1
     8     4    29    1
     9     5     6    1
    10     5    30    1
    11     5    31    1
    12     6    11   ar
    13     6     7   ar
    14     7     8   ar
    15     7    32    1
    16     8     9   ar
    17     8    33    1
    18     9    10   ar
    19    10    11   ar
    20    10    34    1
    21    11    35    1
    22    12    13    2
    23    12    14   am
    24    14    26    1
    25    14    15    1
    26    15    16    1
    27    15    36    1
    28    15    37    1
    29    16    17    1
    30    16    38    1
    31    16    39    1
    32    17    18    1
    33    17    25    1
    34    18    19    1
    35    18    40    1
    36    18    41    1
    37    19    24   ar
    38    19    20   ar
    39    20    21   ar
    40    20    42    1
    41    21    22   ar
    42    21    43    1
    43    22    23   ar
    44    22    44    1
    45    23    24   ar
    46    23    45    1
    47    25    26    1
    48    25    46    1
    49    25    47    1
    50    26    48    1
    51    26    49    1
@<TRIPOS>SUBSTRUCTURE
     1 <0>         1 TEMP              0 ****  ****    0 ROOT


##########                                Name:    ZINC001191386213
##########                DOCK_Rotatable_Bonds:                   6
##########                         Heavy_Atoms:                  29
##########                    Molecular_Weight:             392.433
##########                DOCK_Rotatable_Bonds:                   6
##########                       Formal_Charge:               -0.02
##########                     HBond_Acceptors:                   7
##########                        HBond_Donors:                   2
##########                         Heavy_Atoms:                  29
##########                          Grid_Score:          -30.144623
##########                     Grid_vdw_energy:          -29.664301
##########                      Grid_es_energy:           -0.480322
##########           Internal_energy_repulsive:          152.040344

@<TRIPOS>MOLECULE
ZINC001191386213
 50 53 1 0 0
SMALL
USER_CHARGES


@<TRIPOS>ATOM
      1 C1        -18.0657   -1.8128   50.1919 C.3     1  ZINC001191386213   -0.1700
      2 C2        -17.6174   -3.0316   50.9566 C.2     1  ZINC001191386213    0.5100
      3 O3        -17.3069   -2.9341   52.1250 O.2     1  ZINC001191386213   -0.5200
      4 N4        -17.5614   -4.2299   50.3422 N.am    1  ZINC001191386213   -0.6800
      5 C5        -17.1451   -5.3616   51.0523 C.ar    1  ZINC001191386213    0.1400
      6 C6        -17.1899   -6.6137   50.4523 C.ar    1  ZINC001191386213   -0.1400
      7 C7        -16.7791   -7.7335   51.1505 C.ar    1  ZINC001191386213   -0.1000
      8 C8        -16.3224   -7.6140   52.4478 C.ar    1  ZINC001191386213   -0.1100
      9 C9        -16.2745   -6.3618   53.0576 C.ar    1  ZINC001191386213    0.0100
     10 C10       -15.7836   -6.2317   54.4526 C.2     1  ZINC001191386213    0.0700
     11 N11       -15.3368   -7.2081   55.2140 N.2     1  ZINC001191386213   -0.2500
     12 N12       -14.9884   -6.7640   56.3675 N.pl3   1  ZINC001191386213   -0.3800
     13 C13       -15.1966   -5.4147   56.4280 C.2     1  ZINC001191386213   -0.0400
     14 C14       -14.9251   -4.5317   57.5740 C.2     1  ZINC001191386213    0.6100
     15 O15       -15.7128   -4.4764   58.4992 O.2     1  ZINC001191386213   -0.5100
     16 N16       -13.8037   -3.7845   57.5981 N.am    1  ZINC001191386213   -0.6200
     17 C17       -12.7713   -3.7547   56.5519 C.3     1  ZINC001191386213    0.0800
     18 C18       -11.6701   -2.7812   57.0223 C.3     1  ZINC001191386213   -0.1200
     19 C19       -11.8689   -2.7489   58.5608 C.3     1  ZINC001191386213   -0.0600
     20 H20       -11.3782   -3.5983   59.0360 H       1  ZINC001191386213    0.1000
     21 C21       -11.3755   -1.4491   59.1421 C.ar    1  ZINC001191386213   -0.1100
     22 C22       -11.9645   -0.2567   58.7673 C.ar    1  ZINC001191386213   -0.0900
     23 C23       -11.5119    0.9361   59.3004 C.ar    1  ZINC001191386213   -0.1300
     24 C24       -10.4698    0.9373   60.2084 C.ar    1  ZINC001191386213   -0.0900
     25 C25        -9.8788   -0.2542   60.5845 C.ar    1  ZINC001191386213   -0.1500
     26 C26       -10.3354   -1.4497   60.0564 C.ar    1  ZINC001191386213    0.1100
     27 F27        -9.7585   -2.6150   60.4231 F       1  ZINC001191386213   -0.1400
     28 C28       -13.4122   -2.8570   58.6751 C.3     1  ZINC001191386213    0.1200
     29 C29       -15.7058   -5.0417   55.1988 C.2     1  ZINC001191386213   -0.1300
     30 C30       -16.6821   -5.2327   52.3533 C.ar    1  ZINC001191386213   -0.1000
     31 H31       -18.0465   -0.9439   50.8497 H       1  ZINC001191386213    0.1000
     32 H32       -17.3949   -1.6456   49.3492 H       1  ZINC001191386213    0.0900
     33 H33       -19.0799   -1.9676   49.8239 H       1  ZINC001191386213    0.0900
     34 H34       -17.8098   -4.3078   49.4078 H       1  ZINC001191386213    0.4100
     35 H35       -17.5471   -6.7124   49.4379 H       1  ZINC001191386213    0.1300
     36 H36       -16.8157   -8.7050   50.6799 H       1  ZINC001191386213    0.1300
     37 H37       -16.0025   -8.4913   52.9904 H       1  ZINC001191386213    0.1300
     38 H38       -14.6313   -7.3056   57.0886 H       1  ZINC001191386213    0.4400
     39 H39       -12.3517   -4.7516   56.4165 H       1  ZINC001191386213    0.0700
     40 H40       -13.2027   -3.4016   55.6152 H       1  ZINC001191386213    0.0800
     41 H41       -10.6819   -3.1653   56.7692 H       1  ZINC001191386213    0.0900
     42 H42       -11.8217   -1.7909   56.5930 H       1  ZINC001191386213    0.0900
     43 H43       -12.7784   -0.2563   58.0573 H       1  ZINC001191386213    0.1300
     44 H44       -11.9729    1.8677   59.0070 H       1  ZINC001191386213    0.1300
     45 H45       -10.1169    1.8696   60.6239 H       1  ZINC001191386213    0.1300
     46 H46        -9.0641   -0.2530   61.2934 H       1  ZINC001191386213    0.1400
     47 H47       -13.8729   -1.8801   58.5277 H       1  ZINC001191386213    0.0800
     48 H48       -13.6930   -3.2672   59.6451 H       1  ZINC001191386213    0.0900
     49 H49       -15.9896   -4.0493   54.8809 H       1  ZINC001191386213    0.1700
     50 H50       -16.6469   -4.2602   52.8218 H       1  ZINC001191386213    0.1500
@<TRIPOS>BOND
     1     1     2    1
     2     1    31    1
     3     1    32    1
     4     1    33    1
     5     2     3    2
     6     2     4   am
     7     4     5    1
     8     4    34    1
     9     5    30   ar
    10     5     6   ar
    11     6     7   ar
    12     6    35    1
    13     7     8   ar
    14     7    36    1
    15     8     9   ar
    16     8    37    1
    17     9    10    1
    18     9    30   ar
    19    10    29    1
    20    10    11    2
    21    11    12    1
    22    12    13    1
    23    12    38    1
    24    13    14    1
    25    13    29    2
    26    14    15    2
    27    14    16   am
    28    16    28    1
    29    16    17    1
    30    17    18    1
    31    17    39    1
    32    17    40    1
    33    18    19    1
    34    18    41    1
    35    18    42    1
    36    19    20    1
    37    19    21    1
    38    19    28    1
    39    21    26   ar
    40    21    22   ar
    41    22    23   ar
    42    22    43    1
    43    23    24   ar
    44    23    44    1
    45    24    25   ar
    46    24    45    1
    47    25    26   ar
    48    25    46    1
    49    26    27    1
    50    28    47    1
    51    28    48    1
    52    29    49    1
    53    30    50    1
@<TRIPOS>SUBSTRUCTURE
     1 ZINC001191386213        1 TEMP              0 ****  ****    0 ROOT


##########                                Name:    ZINC000979274057
##########                DOCK_Rotatable_Bonds:                   6
##########                         Heavy_Atoms:                  24
##########                    Molecular_Weight:              330.39
##########                DOCK_Rotatable_Bonds:                   6
##########                       Formal_Charge:          0.00999946
##########                     HBond_Acceptors:                   8
##########                        HBond_Donors:                   1
##########                         Heavy_Atoms:                  24
##########                          Grid_Score:          -30.127712
##########                     Grid_vdw_energy:          -28.661678
##########                      Grid_es_energy:           -1.466034
##########           Internal_energy_repulsive:            9.212003

@<TRIPOS>MOLECULE
ZINC000979274057
 46 48 1 0 0
SMALL
USER_CHARGES


@<TRIPOS>ATOM
      1 C1         -9.4518    2.3045   57.7761 C.3     1  ZINC000979274057   -0.1400
      2 C2         -9.2579    0.8628   57.3022 C.3     1  ZINC000979274057    0.1000
      3 H3         -8.2997    0.4878   57.6619 H       1  ZINC000979274057    0.0600
      4 N4         -9.2794    0.8228   55.8339 N.3     1  ZINC000979274057   -0.6700
      5 C5         -8.1707    1.6043   55.2698 C.3     1  ZINC000979274057    0.1300
      6 C6         -7.8628    1.1087   53.8803 C.ar    1  ZINC000979274057    0.3200
      7 N7         -8.8021    0.4830   53.1996 N.ar    1  ZINC000979274057   -0.5200
      8 C8         -8.5683    0.0339   51.9770 C.ar    1  ZINC000979274057    0.1500
      9 C9         -7.3166    0.2296   51.4149 C.ar    1  ZINC000979274057   -0.2300
     10 C10        -6.3549    0.8918   52.1615 C.ar    1  ZINC000979274057    0.1500
     11 N11        -6.6631    1.3174   53.3760 N.ar    1  ZINC000979274057   -0.5000
     12 C12       -10.3866   -0.0112   57.8527 C.3     1  ZINC000979274057    0.0800
     13 H13       -11.2259    0.6197   58.1454 H       1  ZINC000979274057    0.0700
     14 C14        -9.8822   -0.7907   59.0725 C.3     1  ZINC000979274057    0.0800
     15 N15       -10.9193   -1.7573   59.4668 N.am    1  ZINC000979274057   -0.6000
     16 C16       -11.3451   -1.8359   60.7431 C.2     1  ZINC000979274057    0.6100
     17 O17       -12.2035   -2.6414   61.0492 O.2     1  ZINC000979274057   -0.5400
     18 C18       -10.7709   -0.9465   61.7675 C.2     1  ZINC000979274057   -0.0600
     19 C19        -9.7785   -1.2651   62.6476 C.2     1  ZINC000979274057    0.0400
     20 N20        -9.5568   -0.1650   63.4048 N.pl3   1  ZINC000979274057   -0.4600
     21 C21        -8.5743   -0.0432   64.4847 C.3     1  ZINC000979274057    0.0700
     22 C22       -10.4083    0.8060   62.9834 C.2     1  ZINC000979274057    0.1900
     23 N23       -11.1289    0.3416   62.0038 N.2     1  ZINC000979274057   -0.4600
     24 C24       -11.4781   -2.6353   58.4265 C.3     1  ZINC000979274057    0.0500
     25 C25       -11.9047   -1.7658   57.2382 C.3     1  ZINC000979274057    0.0500
     26 O26       -10.8107   -0.9335   56.8459 O.3     1  ZINC000979274057   -0.3600
     27 H27        -8.6476    2.9271   57.3840 H       1  ZINC000979274057    0.0600
     28 H28       -10.4099    2.6795   57.4164 H       1  ZINC000979274057    0.0700
     29 H29        -9.4359    2.3341   58.8656 H       1  ZINC000979274057    0.0600
     30 H30        -9.2591   -0.1283   55.4977 H       1  ZINC000979274057    0.3500
     31 H31        -8.4529    2.6562   55.2261 H       1  ZINC000979274057    0.1000
     32 H32        -7.2886    1.4907   55.8999 H       1  ZINC000979274057    0.0600
     33 H33        -9.3423   -0.4783   51.4248 H       1  ZINC000979274057    0.1700
     34 H34        -7.0959   -0.1259   50.4192 H       1  ZINC000979274057    0.1500
     35 H35        -5.3685    1.0618   51.7560 H       1  ZINC000979274057    0.1700
     36 H36        -8.9649   -1.3207   58.8158 H       1  ZINC000979274057    0.0700
     37 H37        -9.6908   -0.1017   59.8950 H       1  ZINC000979274057    0.1000
     38 H38        -9.2677   -2.2134   62.7256 H       1  ZINC000979274057    0.1900
     39 H39        -7.6275    0.3106   64.0765 H       1  ZINC000979274057    0.0800
     40 H40        -8.9374    0.6666   65.2280 H       1  ZINC000979274057    0.0900
     41 H41        -8.4268   -1.0162   64.9533 H       1  ZINC000979274057    0.0900
     42 H42       -10.4740    1.8033   63.3924 H       1  ZINC000979274057    0.2100
     43 H43       -10.7216   -3.3510   58.1048 H       1  ZINC000979274057    0.0700
     44 H44       -12.3434   -3.1676   58.8213 H       1  ZINC000979274057    0.1500
     45 H45       -12.1928   -2.4056   56.4039 H       1  ZINC000979274057    0.1100
     46 H46       -12.7502   -1.1421   57.5284 H       1  ZINC000979274057    0.0500
@<TRIPOS>BOND
     1     1     2    1
     2     1    27    1
     3     1    28    1
     4     1    29    1
     5     2     3    1
     6     2     4    1
     7     2    12    1
     8     4     5    1
     9     4    30    1
    10     5     6    1
    11     5    31    1
    12     5    32    1
    13     6    11   ar
    14     6     7   ar
    15     7     8   ar
    16     8     9   ar
    17     8    33    1
    18     9    10   ar
    19     9    34    1
    20    10    11   ar
    21    10    35    1
    22    12    13    1
    23    12    26    1
    24    12    14    1
    25    14    15    1
    26    14    36    1
    27    14    37    1
    28    15    16   am
    29    15    24    1
    30    16    17    2
    31    16    18    1
    32    18    23    1
    33    18    19    2
    34    19    20    1
    35    19    38    1
    36    20    21    1
    37    20    22    1
    38    21    39    1
    39    21    40    1
    40    21    41    1
    41    22    23    2
    42    22    42    1
    43    24    25    1
    44    24    43    1
    45    24    44    1
    46    25    26    1
    47    25    45    1
    48    25    46    1
@<TRIPOS>SUBSTRUCTURE
     1 ZINC000979274057        1 TEMP              0 ****  ****    0 ROOT


##########                                Name:    ZINC000623581528
##########                DOCK_Rotatable_Bonds:                   5
##########                         Heavy_Atoms:                  26
##########                    Molecular_Weight:             355.369
##########                DOCK_Rotatable_Bonds:                   5
##########                       Formal_Charge:        -4.47035e-07
##########                     HBond_Acceptors:                   7
##########                        HBond_Donors:                   2
##########                         Heavy_Atoms:                  26
##########                          Grid_Score:          -30.124752
##########                     Grid_vdw_energy:          -28.033087
##########                      Grid_es_energy:           -2.091665
##########           Internal_energy_repulsive:           39.983139

@<TRIPOS>MOLECULE
ZINC000623581528
 44 47 1 0 0
SMALL
USER_CHARGES


@<TRIPOS>ATOM
      1 C1          0.5820    3.6663   45.1112 C.3     1  ZINC000623581528    0.1000
      2 N2          0.2402    2.2600   44.8833 N.am    1  ZINC000623581528   -0.5500
      3 C3          0.3400    1.5946   43.7155 C.2     1  ZINC000623581528    0.6300
      4 O4          0.7332    2.0703   42.6678 O.2     1  ZINC000623581528   -0.4800
      5 O5         -0.0618    0.3256   43.8882 O.3     1  ZINC000623581528   -0.2300
      6 C6         -0.4311    0.1473   45.1802 C.ar    1  ZINC000623581528    0.0400
      7 C7         -0.9137   -0.9451   45.8831 C.ar    1  ZINC000623581528   -0.0800
      8 C8         -1.2108   -0.8234   47.2269 C.ar    1  ZINC000623581528   -0.0900
      9 C9         -1.0293    0.3852   47.8755 C.ar    1  ZINC000623581528   -0.0900
     10 C10        -1.3563    0.5079   49.3415 C.3     1  ZINC000623581528    0.1800
     11 N11        -0.2936    1.2559   50.0180 N.am    1  ZINC000623581528   -0.7400
     12 C12        -0.5510    2.4736   50.5351 C.2     1  ZINC000623581528    0.7100
     13 O13        -1.6646    2.9520   50.4389 O.2     1  ZINC000623581528   -0.5800
     14 N14         0.4262    3.1609   51.1588 N.am    1  ZINC000623581528   -0.7300
     15 C15         0.1461    4.4839   51.7225 C.3     1  ZINC000623581528    0.2000
     16 H16         1.0339    5.1137   51.6668 H       1  ZINC000623581528    0.1000
     17 C17        -0.3268    4.3532   53.1860 C.3     1  ZINC000623581528   -0.1300
     18 C18        -1.8615    4.2903   53.0339 C.3     1  ZINC000623581528   -0.0800
     19 C19        -2.1621    5.0221   51.7434 C.ar    1  ZINC000623581528   -0.1000
     20 C20        -3.3510    5.5486   51.2670 C.ar    1  ZINC000623581528   -0.0800
     21 C21        -3.3886    6.1849   50.0419 C.ar    1  ZINC000623581528   -0.1400
     22 C22        -2.2339    6.2969   49.2865 C.ar    1  ZINC000623581528    0.0900
     23 F23        -2.2671    6.9192   48.0878 F       1  ZINC000623581528   -0.1400
     24 C24        -1.0456    5.7707   49.7615 C.ar    1  ZINC000623581528   -0.1200
     25 C25        -1.0065    5.1344   50.9880 C.ar    1  ZINC000623581528   -0.0900
     26 C26        -0.5486    1.4801   47.1830 C.ar    1  ZINC000623581528   -0.0800
     27 C27        -0.2422    1.3638   45.8366 C.ar    1  ZINC000623581528    0.0700
     28 H28         1.6303    3.7433   45.3997 H       1  ZINC000623581528    0.0800
     29 H29         0.4145    4.2339   44.1957 H       1  ZINC000623581528    0.0900
     30 H30        -0.0445    4.0681   45.9075 H       1  ZINC000623581528    0.0900
     31 H31        -1.0577   -1.8903   45.3810 H       1  ZINC000623581528    0.1500
     32 H32        -1.5869   -1.6755   47.7735 H       1  ZINC000623581528    0.1500
     33 H33        -2.3033    1.0345   49.4597 H       1  ZINC000623581528    0.0800
     34 H34        -1.4364   -0.4867   49.7803 H       1  ZINC000623581528    0.0800
     35 H35         0.5951    0.8746   50.0936 H       1  ZINC000623581528    0.4000
     36 H36         1.3150    2.7799   51.2345 H       1  ZINC000623581528    0.4000
     37 H37         0.0557    3.4373   53.6364 H       1  ZINC000623581528    0.0900
     38 H38        -0.0306    5.2257   53.7682 H       1  ZINC000623581528    0.0900
     39 H39        -2.1928    3.2540   52.9671 H       1  ZINC000623581528    0.0800
     40 H40        -2.3455    4.7894   53.8734 H       1  ZINC000623581528    0.0800
     41 H41        -4.2521    5.4616   51.8559 H       1  ZINC000623581528    0.1300
     42 H42        -4.3175    6.5944   49.6735 H       1  ZINC000623581528    0.1400
     43 H43        -0.1446    5.8578   49.1725 H       1  ZINC000623581528    0.1400
     44 H44        -0.4075    2.4227   47.6909 H       1  ZINC000623581528    0.1400
@<TRIPOS>BOND
     1     1     2    1
     2     1    28    1
     3     1    29    1
     4     1    30    1
     5     2    27    1
     6     2     3   am
     7     3     4    2
     8     3     5    1
     9     5     6    1
    10     6    27   ar
    11     6     7   ar
    12     7     8   ar
    13     7    31    1
    14     8     9   ar
    15     8    32    1
    16     9    10    1
    17     9    26   ar
    18    10    11    1
    19    10    33    1
    20    10    34    1
    21    11    12   am
    22    11    35    1
    23    12    13    2
    24    12    14   am
    25    14    15    1
    26    14    36    1
    27    15    16    1
    28    15    25    1
    29    15    17    1
    30    17    18    1
    31    17    37    1
    32    17    38    1
    33    18    19    1
    34    18    39    1
    35    18    40    1
    36    19    25   ar
    37    19    20   ar
    38    20    21   ar
    39    20    41    1
    40    21    22   ar
    41    21    42    1
    42    22    23    1
    43    22    24   ar
    44    24    25   ar
    45    24    43    1
    46    26    27   ar
    47    26    44    1
@<TRIPOS>SUBSTRUCTURE
     1 ZINC000623581528        1 TEMP              0 ****  ****    0 ROOT


##########                                Name:    ZINC000824084043
##########                DOCK_Rotatable_Bonds:                  11
##########                         Heavy_Atoms:                  27
##########                    Molecular_Weight:             382.547
##########                DOCK_Rotatable_Bonds:                  11
##########                       Formal_Charge:        -6.85453e-07
##########                     HBond_Acceptors:                   7
##########                        HBond_Donors:                   3
##########                         Heavy_Atoms:                  27
##########                          Grid_Score:          -30.121571
##########                     Grid_vdw_energy:          -25.342684
##########                      Grid_es_energy:           -4.778887
##########           Internal_energy_repulsive:           25.159534

@<TRIPOS>MOLECULE
ZINC000824084043
 65 66 1 0 0
SMALL
USER_CHARGES


@<TRIPOS>ATOM
      1 C1        -11.1662   -1.9633   60.7733 C.3     1  ZINC000824084043   -0.1400
      2 C2        -10.6202   -1.9709   59.3440 C.3     1  ZINC000824084043   -0.1000
      3 C3         -9.8526   -3.2713   59.0983 C.3     1  ZINC000824084043   -0.1300
      4 C4        -11.7820   -1.8694   58.3537 C.3     1  ZINC000824084043    0.1700
      5 H5        -12.7216   -1.7995   58.9017 H       1  ZINC000824084043    0.0700
      6 C6        -11.6043   -0.6226   57.4849 C.3     1  ZINC000824084043   -0.1400
      7 C7        -10.6079   -0.9208   56.3627 C.3     1  ZINC000824084043    0.1300
      8 N8        -10.0925    0.3387   55.8199 N.am    1  ZINC000824084043   -0.6200
      9 C9        -10.8901    1.1021   54.8570 C.3     1  ZINC000824084043    0.0800
     10 C10        -8.8848    0.7949   56.2066 C.2     1  ZINC000824084043    0.7000
     11 O11        -8.2234    0.1620   57.0068 O.2     1  ZINC000824084043   -0.5800
     12 N12        -8.4099    1.9527   55.7060 N.am    1  ZINC000824084043   -0.7500
     13 C13        -7.0963    2.4478   56.1248 C.3     1  ZINC000824084043    0.1600
     14 C14        -6.4314    3.1852   54.9588 C.3     1  ZINC000824084043   -0.1600
     15 C15        -5.0958    3.7677   55.4261 C.3     1  ZINC000824084043   -0.0100
     16 N16        -5.3267    4.7049   56.5319 N.4     1  ZINC000824084043   -0.3800
     17 H17        -5.9669    5.4252   56.2327 H       1  ZINC000824084043    0.4200
     18 C18        -4.0514    5.3184   56.9262 C.3     1  ZINC000824084043    0.0000
     19 C19        -3.0478    4.2214   57.2872 C.3     1  ZINC000824084043   -0.1200
     20 C20        -1.9233    4.1446   56.2248 C.3     1  ZINC000824084043   -0.1400
     21 C21        -0.7581    3.4896   57.0073 C.3     1  ZINC000824084043   -0.1200
     22 C22        -0.8536    4.1090   58.4170 C.3     1  ZINC000824084043   -0.1300
     23 C23        -2.3095    4.5743   58.5949 C.3     1  ZINC000824084043   -0.1100
     24 C24        -5.8981    3.9903   57.6796 C.3     1  ZINC000824084043    0.0000
     25 C25        -7.2646    3.4163   57.2990 C.3     1  ZINC000824084043   -0.1600
     26 N26       -11.8018   -3.0603   57.5005 N.am    1  ZINC000824084043   -0.7800
     27 C27       -12.8193   -3.9392   57.5938 C.2     1  ZINC000824084043    0.6600
     28 O28       -13.7254   -3.7433   58.3916 O.co2   1  ZINC000824084043   -0.7200
     29 O29       -12.8366   -4.9326   56.8804 O.co2   1  ZINC000824084043   -0.7300
     30 H30       -10.3386   -2.0355   61.4788 H       1  ZINC000824084043    0.0500
     31 H31       -11.7132   -1.0368   60.9484 H       1  ZINC000824084043    0.0500
     32 H32       -11.8360   -2.8121   60.9107 H       1  ZINC000824084043    0.0500
     33 H33        -9.9504   -1.1220   59.2064 H       1  ZINC000824084043    0.0500
     34 H34       -10.5224   -4.1201   59.2357 H       1  ZINC000824084043    0.0600
     35 H35        -9.4635   -3.2767   58.0801 H       1  ZINC000824084043    0.0700
     36 H36        -9.0249   -3.3435   59.8038 H       1  ZINC000824084043    0.0300
     37 H37       -12.5645   -0.3409   57.0529 H       1  ZINC000824084043    0.0700
     38 H38       -11.2272    0.1963   58.0975 H       1  ZINC000824084043    0.0600
     39 H39        -9.7815   -1.5112   56.7580 H       1  ZINC000824084043    0.0900
     40 H40       -11.1082   -1.4795   55.5717 H       1  ZINC000824084043    0.0900
     41 H41       -11.5294    1.8052   55.3911 H       1  ZINC000824084043    0.0600
     42 H42       -10.2260    1.6503   54.1888 H       1  ZINC000824084043    0.0600
     43 H43       -11.5084    0.4189   54.2747 H       1  ZINC000824084043    0.0800
     44 H44        -8.9381    2.4582   55.0683 H       1  ZINC000824084043    0.4000
     45 H45        -6.4713    1.6089   56.4309 H       1  ZINC000824084043    0.1100
     46 H46        -6.2576    2.4881   54.1391 H       1  ZINC000824084043    0.1200
     47 H47        -7.0816    3.9917   54.6201 H       1  ZINC000824084043    0.0900
     48 H48        -4.4463    2.9603   55.7644 H       1  ZINC000824084043    0.1300
     49 H49        -4.6196    4.2932   54.5983 H       1  ZINC000824084043    0.1300
     50 H50        -3.6612    5.9097   56.0979 H       1  ZINC000824084043    0.1300
     51 H51        -4.2105    5.9638   57.7901 H       1  ZINC000824084043    0.1300
     52 H52        -3.5526    3.2599   57.3815 H       1  ZINC000824084043    0.1000
     53 H53        -2.2262    3.5176   55.3863 H       1  ZINC000824084043    0.0700
     54 H54        -1.6464    5.1419   55.8827 H       1  ZINC000824084043    0.0800
     55 H55        -0.8910    2.4088   57.0556 H       1  ZINC000824084043    0.0700
     56 H56         0.1979    3.7371   56.5460 H       1  ZINC000824084043    0.0800
     57 H57        -0.6057    3.3616   59.1707 H       1  ZINC000824084043    0.0700
     58 H58        -0.1772    4.9598   58.4975 H       1  ZINC000824084043    0.0700
     59 H59        -2.3396    5.6509   58.7618 H       1  ZINC000824084043    0.0700
     60 H60        -2.7681    4.0527   59.4350 H       1  ZINC000824084043    0.0800
     61 H61        -5.2314    3.1782   57.9698 H       1  ZINC000824084043    0.1300
     62 H62        -6.0142    4.6801   58.5154 H       1  ZINC000824084043    0.1300
     63 H63        -7.9321    4.2277   57.0088 H       1  ZINC000824084043    0.0900
     64 H64        -7.6863    2.8846   58.1520 H       1  ZINC000824084043    0.1200
     65 H65       -11.0826   -3.2163   56.8687 H       1  ZINC000824084043    0.3600
@<TRIPOS>BOND
     1     1     2    1
     2     1    30    1
     3     1    31    1
     4     1    32    1
     5     2     3    1
     6     2     4    1
     7     2    33    1
     8     3    34    1
     9     3    35    1
    10     3    36    1
    11     4     5    1
    12     4     6    1
    13     4    26    1
    14     6     7    1
    15     6    37    1
    16     6    38    1
    17     7     8    1
    18     7    39    1
    19     7    40    1
    20     8     9    1
    21     8    10   am
    22     9    41    1
    23     9    42    1
    24     9    43    1
    25    10    11    2
    26    10    12   am
    27    12    13    1
    28    12    44    1
    29    13    25    1
    30    13    14    1
    31    13    45    1
    32    14    15    1
    33    14    46    1
    34    14    47    1
    35    15    16    1
    36    15    48    1
    37    15    49    1
    38    16    17    1
    39    16    18    1
    40    16    24    1
    41    18    19    1
    42    18    50    1
    43    18    51    1
    44    19    23    1
    45    19    20    1
    46    19    52    1
    47    20    21    1
    48    20    53    1
    49    20    54    1
    50    21    22    1
    51    21    55    1
    52    21    56    1
    53    22    23    1
    54    22    57    1
    55    22    58    1
    56    23    59    1
    57    23    60    1
    58    24    25    1
    59    24    61    1
    60    24    62    1
    61    25    63    1
    62    25    64    1
    63    26    27   am
    64    26    65    1
    65    27    28   ar
    66    27    29   ar
@<TRIPOS>SUBSTRUCTURE
     1 ZINC000824084043        1 TEMP              0 ****  ****    0 ROOT


##########                                Name:    ZINC001707804910
##########                DOCK_Rotatable_Bonds:                   4
##########                         Heavy_Atoms:                  26
##########                    Molecular_Weight:             358.403
##########                DOCK_Rotatable_Bonds:                   4
##########                       Formal_Charge:          -0.0399996
##########                     HBond_Acceptors:                  10
##########                        HBond_Donors:                   0
##########                         Heavy_Atoms:                  26
##########                          Grid_Score:          -30.116175
##########                     Grid_vdw_energy:          -29.853991
##########                      Grid_es_energy:           -0.262184
##########           Internal_energy_repulsive:            7.469463

@<TRIPOS>MOLECULE
ZINC001707804910
 48 51 1 0 0
SMALL
USER_CHARGES


@<TRIPOS>ATOM
      1 C1         -9.6095   -0.5402   52.2556 C.3     1  ZINC001707804910   -0.0700
      2 C2         -9.0684    0.2801   53.3982 C.2     1  ZINC001707804910    0.0700
      3 N3         -8.0847    1.1398   53.3270 N.2     1  ZINC001707804910   -0.2800
      4 N4         -7.8904    1.6890   54.6009 N.pl3   1  ZINC001707804910   -0.3700
      5 C5         -6.8873    2.6936   54.9625 C.3     1  ZINC001707804910    0.0900
      6 C6         -8.7905    1.1294   55.4363 C.2     1  ZINC001707804910    0.0500
      7 C7         -8.9430    1.4258   56.9059 C.3     1  ZINC001707804910    0.1800
      8 N8        -10.3381    1.2210   57.3032 N.pl3   1  ZINC001707804910   -0.4600
      9 C9        -11.4417    1.8483   56.7951 C.2     1  ZINC001707804910    0.1900
     10 C10       -11.4545    2.8927   55.7086 C.3     1  ZINC001707804910   -0.0700
     11 N11       -12.4803    1.3753   57.4238 N.2     1  ZINC001707804910   -0.2800
     12 N12       -12.1107    0.4985   58.2879 N.2     1  ZINC001707804910   -0.3000
     13 C13       -10.8064    0.3604   58.2530 C.2     1  ZINC001707804910    0.3500
     14 N14       -10.0469   -0.4922   59.0384 N.3     1  ZINC001707804910   -0.4600
     15 C15       -10.3086   -1.8975   58.6954 C.3     1  ZINC001707804910    0.0200
     16 C16        -9.4078   -2.8002   59.5426 C.3     1  ZINC001707804910    0.0700
     17 O17        -9.6375   -2.5291   60.9279 O.3     1  ZINC001707804910   -0.3600
     18 C18        -9.3916   -1.1696   61.2971 C.3     1  ZINC001707804910    0.2000
     19 H19        -8.3468   -0.9239   61.1067 H       1  ZINC001707804910    0.1000
     20 C20        -9.6935   -0.9833   62.7617 C.2     1  ZINC001707804910    0.1600
     21 N21       -10.8070   -0.5355   63.2684 N.2     1  ZINC001707804910   -0.2500
     22 N22       -10.7123   -0.5096   64.5513 N.2     1  ZINC001707804910   -0.2900
     23 C23        -9.5352   -0.9400   64.9067 C.2     1  ZINC001707804910    0.1700
     24 C24        -9.0207   -1.0674   66.3174 C.3     1  ZINC001707804910   -0.0600
     25 O25        -8.8658   -1.2540   63.7848 O.3     1  ZINC001707804910   -0.2200
     26 C26       -10.2922   -0.2504   60.4676 C.3     1  ZINC001707804910    0.0400
     27 C27        -9.5352    0.2584   54.7165 C.2     1  ZINC001707804910   -0.2300
     28 H28       -10.4057    0.0122   51.7568 H       1  ZINC001707804910    0.0800
     29 H29        -8.8091   -0.7454   51.5447 H       1  ZINC001707804910    0.0700
     30 H30       -10.0048   -1.4809   52.6390 H       1  ZINC001707804910    0.0800
     31 H31        -7.2691    3.6881   54.7313 H       1  ZINC001707804910    0.0800
     32 H32        -6.6730    2.6257   56.0291 H       1  ZINC001707804910    0.0900
     33 H33        -5.9733    2.5147   54.3962 H       1  ZINC001707804910    0.0900
     34 H34        -8.3000    0.7583   57.4797 H       1  ZINC001707804910    0.1100
     35 H35        -8.6581    2.4599   57.0995 H       1  ZINC001707804910    0.1200
     36 H36       -11.4444    2.4036   54.7345 H       1  ZINC001707804910    0.0900
     37 H37       -12.3540    3.5013   55.8003 H       1  ZINC001707804910    0.1000
     38 H38       -10.5743    3.5283   55.8053 H       1  ZINC001707804910    0.0700
     39 H39       -11.3534   -2.1331   58.8975 H       1  ZINC001707804910    0.0700
     40 H40       -10.0961   -2.0599   57.6387 H       1  ZINC001707804910    0.0900
     41 H41        -9.6387   -3.8447   59.3329 H       1  ZINC001707804910    0.1200
     42 H42        -8.3635   -2.6021   59.3012 H       1  ZINC001707804910    0.0700
     43 H43        -9.2619   -2.0576   66.7041 H       1  ZINC001707804910    0.1000
     44 H44        -7.9396   -0.9282   66.3239 H       1  ZINC001707804910    0.1000
     45 H45        -9.4885   -0.3086   66.9447 H       1  ZINC001707804910    0.1100
     46 H46       -10.0677    0.7896   60.7046 H       1  ZINC001707804910    0.1000
     47 H47       -11.3368   -0.4596   60.6982 H       1  ZINC001707804910    0.0800
     48 H48       -10.3429   -0.3505   55.0947 H       1  ZINC001707804910    0.1500
@<TRIPOS>BOND
     1     1     2    1
     2     1    28    1
     3     1    29    1
     4     1    30    1
     5     2    27    1
     6     2     3    2
     7     3     4    1
     8     4     5    1
     9     4     6    1
    10     5    31    1
    11     5    32    1
    12     5    33    1
    13     6     7    1
    14     6    27    2
    15     7     8    1
    16     7    34    1
    17     7    35    1
    18     8    13    1
    19     8     9    1
    20     9    10    1
    21     9    11    2
    22    10    36    1
    23    10    37    1
    24    10    38    1
    25    11    12    1
    26    12    13    2
    27    13    14    1
    28    14    26    1
    29    14    15    1
    30    15    16    1
    31    15    39    1
    32    15    40    1
    33    16    17    1
    34    16    41    1
    35    16    42    1
    36    17    18    1
    37    18    19    1
    38    18    20    1
    39    18    26    1
    40    20    25    1
    41    20    21    2
    42    21    22    1
    43    22    23    2
    44    23    24    1
    45    23    25    1
    46    24    43    1
    47    24    44    1
    48    24    45    1
    49    26    46    1
    50    26    47    1
    51    27    48    1
@<TRIPOS>SUBSTRUCTURE
     1 ZINC001707804910        1 TEMP              0 ****  ****    0 ROOT


##########                                Name:    ZINC000460163972
##########                DOCK_Rotatable_Bonds:                   7
##########                         Heavy_Atoms:                  28
##########                    Molecular_Weight:             408.469
##########                DOCK_Rotatable_Bonds:                   7
##########                       Formal_Charge:          -0.0100001
##########                     HBond_Acceptors:                   8
##########                        HBond_Donors:                   2
##########                         Heavy_Atoms:                  28
##########                          Grid_Score:          -30.111393
##########                     Grid_vdw_energy:          -28.961924
##########                      Grid_es_energy:           -1.149469
##########           Internal_energy_repulsive:           49.578865

@<TRIPOS>MOLECULE
ZINC000460163972
 50 52 1 0 0
SMALL
USER_CHARGES


@<TRIPOS>ATOM
      1 C1         -6.4683    2.3713   53.1801 C.3     1  ZINC000460163972   -0.1400
      2 C2         -7.4987    1.8316   54.1381 C.ar    1  ZINC000460163972    0.0100
      3 C3         -7.4913    2.2376   55.4598 C.ar    1  ZINC000460163972   -0.1300
      4 C4         -8.4344    1.7448   56.3406 C.ar    1  ZINC000460163972   -0.0600
      5 C5         -9.3908    0.8412   55.8973 C.ar    1  ZINC000460163972    0.1100
      6 N6        -10.3478    0.3404   56.7868 N.am    1  ZINC000460163972   -0.6700
      7 C7         -9.9603   -0.3772   57.8599 C.2     1  ZINC000460163972    0.5200
      8 O8         -8.7820   -0.5888   58.0545 O.2     1  ZINC000460163972   -0.5100
      9 C9        -10.9910   -0.9165   58.8180 C.3     1  ZINC000460163972   -0.0700
     10 H10       -11.9577   -0.4592   58.6070 H       1  ZINC000460163972    0.1200
     11 C11       -11.0974   -2.4337   58.6516 C.3     1  ZINC000460163972   -0.1500
     12 C12       -10.5804   -0.5936   60.2315 C.ar    1  ZINC000460163972   -0.0600
     13 C13        -9.6144   -1.3559   60.8609 C.ar    1  ZINC000460163972   -0.0700
     14 C14        -9.2361   -1.0617   62.1579 C.ar    1  ZINC000460163972   -0.1200
     15 C15        -9.8244   -0.0030   62.8269 C.ar    1  ZINC000460163972    0.0700
     16 F16        -9.4550    0.2855   64.0939 F       1  ZINC000460163972   -0.1300
     17 C17       -10.7934    0.7622   62.1950 C.ar    1  ZINC000460163972    0.0700
     18 F18       -11.3692    1.7965   62.8462 F       1  ZINC000460163972   -0.1300
     19 C19       -11.1663    0.4682   60.8954 C.ar    1  ZINC000460163972   -0.1200
     20 C20        -9.3959    0.4356   54.5689 C.ar    1  ZINC000460163972    0.0000
     21 C21       -10.4324   -0.5447   54.0834 C.3     1  ZINC000460163972   -0.1500
     22 C22        -8.4533    0.9355   53.6923 C.ar    1  ZINC000460163972   -0.6700
     23 S23        -8.4592    0.4222   52.0068 S.o2    1  ZINC000460163972    2.7000
     24 O24        -7.8929    1.4903   51.2600 O.2     1  ZINC000460163972   -0.9500
     25 O25        -7.9396   -0.9002   51.9882 O.2     1  ZINC000460163972   -0.9500
     26 N26       -10.0424    0.3094   51.5344 N.am    1  ZINC000460163972   -1.0900
     27 C27       -10.9077    1.4903   51.5846 C.3     1  ZINC000460163972    0.0800
     28 C28       -11.8313    1.7406   50.3906 C.3     1  ZINC000460163972   -0.1800
     29 C29       -12.4138    1.2573   51.7203 C.3     1  ZINC000460163972   -0.1900
     30 H30        -6.8835    3.2235   52.6421 H       1  ZINC000460163972    0.1000
     31 H31        -5.5856    2.6875   53.7359 H       1  ZINC000460163972    0.0800
     32 H32        -6.1906    1.5932   52.4691 H       1  ZINC000460163972    0.0700
     33 H33        -6.7471    2.9406   55.8040 H       1  ZINC000460163972    0.1400
     34 H34        -8.4276    2.0619   57.3730 H       1  ZINC000460163972    0.1600
     35 H35       -11.2902    0.5096   56.6313 H       1  ZINC000460163972    0.4100
     36 H36       -11.8428   -2.8237   59.3445 H       1  ZINC000460163972    0.0800
     37 H37       -11.3943   -2.6672   57.6291 H       1  ZINC000460163972    0.0700
     38 H38       -10.1307   -2.8910   58.8626 H       1  ZINC000460163972    0.0700
     39 H39        -9.1550   -2.1824   60.3394 H       1  ZINC000460163972    0.1400
     40 H40        -8.4817   -1.6585   62.6488 H       1  ZINC000460163972    0.1500
     41 H41       -11.9206    1.0635   60.4022 H       1  ZINC000460163972    0.1500
     42 H42       -11.2572   -0.0022   53.6212 H       1  ZINC000460163972    0.1000
     43 H43        -9.9832   -1.2157   53.3512 H       1  ZINC000460163972    0.1000
     44 H44       -10.8066   -1.1253   54.9267 H       1  ZINC000460163972    0.0700
     45 H45       -10.3967   -0.5389   51.2245 H       1  ZINC000460163972    0.4200
     46 H46       -10.4860    2.3613   52.0862 H       1  ZINC000460163972    0.1300
     47 H47       -12.0172    2.7764   50.1065 H       1  ZINC000460163972    0.1100
     48 H48       -11.7950    1.0265   49.5679 H       1  ZINC000460163972    0.1000
     49 H49       -12.7607    0.2253   51.7723 H       1  ZINC000460163972    0.1000
     50 H50       -12.9829    1.9752   52.3111 H       1  ZINC000460163972    0.1000
@<TRIPOS>BOND
     1     1     2    1
     2     1    30    1
     3     1    31    1
     4     1    32    1
     5     2    22   ar
     6     2     3   ar
     7     3     4   ar
     8     3    33    1
     9     4     5   ar
    10     4    34    1
    11     5     6    1
    12     5    20   ar
    13     6     7   am
    14     6    35    1
    15     7     8    2
    16     7     9    1
    17     9    10    1
    18     9    11    1
    19     9    12    1
    20    11    36    1
    21    11    37    1
    22    11    38    1
    23    12    19   ar
    24    12    13   ar
    25    13    14   ar
    26    13    39    1
    27    14    15   ar
    28    14    40    1
    29    15    16    1
    30    15    17   ar
    31    17    18    1
    32    17    19   ar
    33    19    41    1
    34    20    21    1
    35    20    22   ar
    36    21    42    1
    37    21    43    1
    38    21    44    1
    39    22    23    1
    40    23    24    2
    41    23    25    2
    42    23    26   am
    43    26    27    1
    44    26    45    1
    45    27    29    1
    46    27    28    1
    47    27    46    1
    48    28    29    1
    49    28    47    1
    50    28    48    1
    51    29    49    1
    52    29    50    1
@<TRIPOS>SUBSTRUCTURE
     1 ZINC000460163972        1 TEMP              0 ****  ****    0 ROOT


##########                                Name:    ZINC000417533280
##########                DOCK_Rotatable_Bonds:                   9
##########                         Heavy_Atoms:                  26
##########                    Molecular_Weight:             367.439
##########                DOCK_Rotatable_Bonds:                   9
##########                       Formal_Charge:         -0.00999999
##########                     HBond_Acceptors:                   7
##########                        HBond_Donors:                   2
##########                         Heavy_Atoms:                  26
##########                          Grid_Score:          -30.111057
##########                     Grid_vdw_energy:          -28.387106
##########                      Grid_es_energy:           -1.723952
##########           Internal_energy_repulsive:           13.213667

@<TRIPOS>MOLECULE
ZINC000417533280
 53 54 1 0 0
SMALL
USER_CHARGES


@<TRIPOS>ATOM
      1 C1         -3.9805    1.6142   64.9452 C.3     1  ZINC000417533280   -0.1600
      2 C2         -5.0405    0.9408   65.8191 C.3     1  ZINC000417533280   -0.1200
      3 C3         -6.4340    1.3298   65.3214 C.3     1  ZINC000417533280   -0.1200
      4 C4         -7.4941    0.6521   66.1921 C.3     1  ZINC000417533280   -0.1300
      5 C5         -8.8869    1.0828   65.7278 C.3     1  ZINC000417533280    0.1200
      6 N6         -9.1665    0.4973   64.4144 N.am    1  ZINC000417533280   -0.7300
      7 C7        -10.4350    0.2108   64.0605 C.2     1  ZINC000417533280    0.5200
      8 O8        -11.3452    0.4391   64.8289 O.2     1  ZINC000417533280   -0.5400
      9 C9        -10.7225   -0.3932   62.7100 C.3     1  ZINC000417533280   -0.1100
     10 C10       -11.1700    0.7067   61.7445 C.3     1  ZINC000417533280   -0.1300
     11 C11       -11.4945    0.0843   60.3828 C.3     1  ZINC000417533280    0.1300
     12 N12       -10.3290   -0.6838   59.9242 N.am    1  ZINC000417533280   -0.6200
     13 C13        -9.7904   -0.4550   58.7100 C.2     1  ZINC000417533280    0.7100
     14 O14        -8.8259   -1.0974   58.3421 O.2     1  ZINC000417533280   -0.5600
     15 N15       -10.3210    0.4857   57.9039 N.am    1  ZINC000417533280   -0.6800
     16 C16        -9.7614    0.7235   56.6422 C.ar    1  ZINC000417533280    0.1900
     17 C17       -10.1013   -0.0867   55.5675 C.ar    1  ZINC000417533280   -0.1100
     18 C18        -9.5492    0.1488   54.3229 C.ar    1  ZINC000417533280   -0.1100
     19 C19        -8.6570    1.1918   54.1463 C.ar    1  ZINC000417533280    0.0500
     20 F20        -8.1187    1.4204   52.9285 F       1  ZINC000417533280   -0.1300
     21 C21        -8.3154    2.0031   55.2182 C.ar    1  ZINC000417533280    0.0900
     22 F22        -7.4443    3.0210   55.0442 F       1  ZINC000417533280   -0.1200
     23 C23        -8.8704    1.7733   56.4638 C.ar    1  ZINC000417533280   -0.1300
     24 C24        -8.5001    2.6546   57.6288 C.3     1  ZINC000417533280   -0.1200
     25 C25        -9.7614   -1.7056   60.8144 C.3     1  ZINC000417533280    0.1100
     26 C26        -9.4564   -1.0631   62.1712 C.3     1  ZINC000417533280   -0.1200
     27 H27        -4.1012    1.2888   63.9119 H       1  ZINC000417533280    0.0500
     28 H28        -4.0973    2.6965   65.0013 H       1  ZINC000417533280    0.0500
     29 H29        -2.9877    1.3371   65.2998 H       1  ZINC000417533280    0.0500
     30 H30        -4.9237   -0.1415   65.7630 H       1  ZINC000417533280    0.0600
     31 H31        -4.9198    1.2662   66.8524 H       1  ZINC000417533280    0.0600
     32 H32        -6.5522    2.4116   65.3810 H       1  ZINC000417533280    0.0700
     33 H33        -6.5534    1.0076   64.2869 H       1  ZINC000417533280    0.0700
     34 H34        -7.3999   -0.4301   66.1029 H       1  ZINC000417533280    0.0700
     35 H35        -7.3512    0.9448   67.2323 H       1  ZINC000417533280    0.0700
     36 H36        -9.6317    0.7384   66.4452 H       1  ZINC000417533280    0.0700
     37 H37        -8.9261    2.1699   65.6569 H       1  ZINC000417533280    0.0700
     38 H38        -8.4387    0.3158   63.7993 H       1  ZINC000417533280    0.4000
     39 H39       -11.5140   -1.1363   62.8056 H       1  ZINC000417533280    0.1000
     40 H40       -12.0583    1.1989   62.1404 H       1  ZINC000417533280    0.0800
     41 H41       -10.3695    1.4374   61.6291 H       1  ZINC000417533280    0.0800
     42 H42       -12.3541   -0.5790   60.4798 H       1  ZINC000417533280    0.0700
     43 H43       -11.7182    0.8729   59.6645 H       1  ZINC000417533280    0.1000
     44 H44       -11.0905    0.9981   58.1975 H       1  ZINC000417533280    0.4100
     45 H45       -10.7972   -0.9013   55.7042 H       1  ZINC000417533280    0.1700
     46 H46        -9.8138   -0.4821   53.4872 H       1  ZINC000417533280    0.1500
     47 H47        -9.1885    3.4981   57.6796 H       1  ZINC000417533280    0.0800
     48 H48        -8.5609    2.0797   58.5530 H       1  ZINC000417533280    0.0700
     49 H49        -7.4829    3.0232   57.4966 H       1  ZINC000417533280    0.0800
     50 H50       -10.4796   -2.5148   60.9464 H       1  ZINC000417533280    0.0800
     51 H51        -8.8415   -2.0978   60.3807 H       1  ZINC000417533280    0.0800
     52 H52        -8.6720   -0.3157   62.0517 H       1  ZINC000417533280    0.0800
     53 H53        -9.1250   -1.8304   62.8708 H       1  ZINC000417533280    0.0900
@<TRIPOS>BOND
     1     1     2    1
     2     1    27    1
     3     1    28    1
     4     1    29    1
     5     2     3    1
     6     2    30    1
     7     2    31    1
     8     3     4    1
     9     3    32    1
    10     3    33    1
    11     4     5    1
    12     4    34    1
    13     4    35    1
    14     5     6    1
    15     5    36    1
    16     5    37    1
    17     6     7   am
    18     6    38    1
    19     7     8    2
    20     7     9    1
    21     9    26    1
    22     9    10    1
    23     9    39    1
    24    10    11    1
    25    10    40    1
    26    10    41    1
    27    11    12    1
    28    11    42    1
    29    11    43    1
    30    12    13   am
    31    12    25    1
    32    13    14    2
    33    13    15   am
    34    15    16    1
    35    15    44    1
    36    16    23   ar
    37    16    17   ar
    38    17    18   ar
    39    17    45    1
    40    18    19   ar
    41    18    46    1
    42    19    20    1
    43    19    21   ar
    44    21    22    1
    45    21    23   ar
    46    23    24    1
    47    24    47    1
    48    24    48    1
    49    24    49    1
    50    25    26    1
    51    25    50    1
    52    25    51    1
    53    26    52    1
    54    26    53    1
@<TRIPOS>SUBSTRUCTURE
     1 ZINC000417533280        1 TEMP              0 ****  ****    0 ROOT


##########                                Name:    ZINC000523863446
##########                DOCK_Rotatable_Bonds:                  10
##########                         Heavy_Atoms:                  29
##########                    Molecular_Weight:             396.533
##########                DOCK_Rotatable_Bonds:                  10
##########                       Formal_Charge:          -0.0200008
##########                     HBond_Acceptors:                   6
##########                        HBond_Donors:                   1
##########                         Heavy_Atoms:                  29
##########                          Grid_Score:          -30.104851
##########                     Grid_vdw_energy:          -31.105595
##########                      Grid_es_energy:            1.000744
##########           Internal_energy_repulsive:           21.274624

@<TRIPOS>MOLECULE
ZINC000523863446
 61 63 1 0 0
SMALL
USER_CHARGES


@<TRIPOS>ATOM
      1 C1        -12.0620    1.2913   62.3711 C.3     1  ZINC000523863446   -0.1700
      2 C2        -11.2925   -0.0285   62.2866 C.3     1  ZINC000523863446    0.1500
      3 H3        -11.9978   -0.8562   62.2120 H       1  ZINC000523863446    0.1300
      4 C4        -10.4037   -0.0147   61.0697 C.2     1  ZINC000523863446    0.5100
      5 O5         -9.9368    1.0315   60.6716 O.2     1  ZINC000523863446   -0.5100
      6 N6        -10.1277   -1.1649   60.4238 N.am    1  ZINC000523863446   -0.6000
      7 C7        -10.6932   -2.4283   60.9034 C.3     1  ZINC000523863446    0.0700
      8 C8         -9.2622   -1.1516   59.2417 C.3     1  ZINC000523863446    0.1000
      9 C9         -9.9339   -1.8993   58.1189 C.2     1  ZINC000523863446    0.5000
     10 O10        -9.6828   -3.0716   57.9354 O.2     1  ZINC000523863446   -0.5200
     11 N11       -10.8136   -1.2653   57.3186 N.am    1  ZINC000523863446   -0.7200
     12 C12       -11.4680   -1.9926   56.2281 C.3     1  ZINC000523863446    0.1900
     13 H13       -10.7798   -2.7334   55.8211 H       1  ZINC000523863446    0.1000
     14 C14       -11.8680   -1.0088   55.1268 C.3     1  ZINC000523863446   -0.1200
     15 C15       -10.6139   -0.3416   54.5586 C.3     1  ZINC000523863446   -0.0900
     16 C16       -10.5012   -0.6557   53.0654 C.3     1  ZINC000523863446   -0.1200
     17 C17        -9.2471    0.0115   52.4972 C.3     1  ZINC000523863446   -0.1200
     18 C18        -9.3412    1.5258   52.6941 C.3     1  ZINC000523863446   -0.1200
     19 C19        -9.4539    1.8399   54.1873 C.3     1  ZINC000523863446   -0.1200
     20 C20       -10.7080    1.1728   54.7555 C.3     1  ZINC000523863446   -0.1100
     21 C21       -12.6986   -2.6856   56.7540 C.ar    1  ZINC000523863446   -0.0900
     22 C22       -13.3275   -2.2103   57.8895 C.ar    1  ZINC000523863446   -0.1100
     23 C23       -14.4563   -2.8460   58.3718 C.ar    1  ZINC000523863446   -0.1200
     24 C24       -14.9564   -3.9567   57.7182 C.ar    1  ZINC000523863446   -0.1200
     25 C25       -14.3282   -4.4314   56.5821 C.ar    1  ZINC000523863446   -0.1200
     26 C26       -13.2018   -3.7931   56.0974 C.ar    1  ZINC000523863446   -0.1000
     27 N27       -10.4719   -0.1932   63.4890 N.pl3   1  ZINC000523863446   -0.3600
     28 C28        -9.2773   -0.8176   63.5555 C.2     1  ZINC000523863446    0.0600
     29 C29        -8.8494   -0.7537   64.8376 C.2     1  ZINC000523863446   -0.2700
     30 C30        -9.8155   -0.0670   65.5801 C.2     1  ZINC000523863446    0.0500
     31 N31       -10.7856    0.2749   64.7714 N.2     1  ZINC000523863446   -0.2900
     32 H32       -11.3567    2.1190   62.4458 H       1  ZINC000523863446    0.0700
     33 H33       -12.6726    1.4137   61.4766 H       1  ZINC000523863446    0.1000
     34 H34       -12.7049    1.2813   63.2513 H       1  ZINC000523863446    0.0800
     35 H35       -11.6556   -2.6017   60.4220 H       1  ZINC000523863446    0.0700
     36 H36       -10.0135   -3.2455   60.6618 H       1  ZINC000523863446    0.0800
     37 H37       -10.8311   -2.3778   61.9835 H       1  ZINC000523863446    0.0800
     38 H38        -9.0816   -0.1212   58.9352 H       1  ZINC000523863446    0.1100
     39 H39        -8.3131   -1.6312   59.4810 H       1  ZINC000523863446    0.1100
     40 H40       -11.0135   -0.3274   57.4646 H       1  ZINC000523863446    0.4000
     41 H41       -12.3865   -1.5446   54.3317 H       1  ZINC000523863446    0.0800
     42 H42       -12.5282   -0.2472   55.5421 H       1  ZINC000523863446    0.0700
     43 H43        -9.7336   -0.7214   55.0772 H       1  ZINC000523863446    0.0700
     44 H44       -10.4342   -1.7345   52.9251 H       1  ZINC000523863446    0.0600
     45 H45       -11.3815   -0.2759   52.5468 H       1  ZINC000523863446    0.0600
     46 H46        -8.3668   -0.3684   53.0158 H       1  ZINC000523863446    0.0600
     47 H47        -9.1668   -0.2123   51.4334 H       1  ZINC000523863446    0.0600
     48 H48        -8.4477    2.0011   52.2892 H       1  ZINC000523863446    0.0600
     49 H49       -10.2215    1.9057   52.1755 H       1  ZINC000523863446    0.0600
     50 H50        -8.5736    1.4600   54.7059 H       1  ZINC000523863446    0.0600
     51 H51        -9.5210    2.9187   54.3275 H       1  ZINC000523863446    0.0600
     52 H52       -11.5883    1.5526   54.2369 H       1  ZINC000523863446    0.0600
     53 H53       -10.7883    1.3965   55.8193 H       1  ZINC000523863446    0.0600
     54 H54       -12.9367   -1.3426   58.4001 H       1  ZINC000523863446    0.1200
     55 H55       -14.9472   -2.4751   59.2594 H       1  ZINC000523863446    0.1200
     56 H56       -15.8380   -4.4537   58.0954 H       1  ZINC000523863446    0.1200
     57 H57       -14.7187   -5.2993   56.0717 H       1  ZINC000523863446    0.1200
     58 H58       -12.7108   -4.1640   55.2098 H       1  ZINC000523863446    0.1200
     59 H59        -8.7564   -1.2848   62.7329 H       1  ZINC000523863446    0.1700
     60 H60        -7.9256   -1.1617   65.2202 H       1  ZINC000523863446    0.1500
     61 H61        -9.7667    0.1485   66.6373 H       1  ZINC000523863446    0.1800
@<TRIPOS>BOND
     1     1     2    1
     2     1    32    1
     3     1    33    1
     4     1    34    1
     5     2     3    1
     6     2     4    1
     7     2    27    1
     8     4     5    2
     9     4     6   am
    10     6     7    1
    11     6     8    1
    12     7    35    1
    13     7    36    1
    14     7    37    1
    15     8     9    1
    16     8    38    1
    17     8    39    1
    18     9    10    2
    19     9    11   am
    20    11    12    1
    21    11    40    1
    22    12    13    1
    23    12    14    1
    24    12    21    1
    25    14    15    1
    26    14    41    1
    27    14    42    1
    28    15    20    1
    29    15    16    1
    30    15    43    1
    31    16    17    1
    32    16    44    1
    33    16    45    1
    34    17    18    1
    35    17    46    1
    36    17    47    1
    37    18    19    1
    38    18    48    1
    39    18    49    1
    40    19    20    1
    41    19    50    1
    42    19    51    1
    43    20    52    1
    44    20    53    1
    45    21    26   ar
    46    21    22   ar
    47    22    23   ar
    48    22    54    1
    49    23    24   ar
    50    23    55    1
    51    24    25   ar
    52    24    56    1
    53    25    26   ar
    54    25    57    1
    55    26    58    1
    56    27    31    1
    57    27    28    1
    58    28    29    2
    59    28    59    1
    60    29    30    1
    61    29    60    1
    62    30    31    2
    63    30    61    1
@<TRIPOS>SUBSTRUCTURE
     1 ZINC000523863446        1 TEMP              0 ****  ****    0 ROOT


##########                                Name:    ZINC000840464592
##########                DOCK_Rotatable_Bonds:                  10
##########                         Heavy_Atoms:                  26
##########                    Molecular_Weight:             360.497
##########                DOCK_Rotatable_Bonds:                  10
##########                       Formal_Charge:          -0.0399996
##########                     HBond_Acceptors:                   5
##########                        HBond_Donors:                   1
##########                         Heavy_Atoms:                  26
##########                          Grid_Score:          -30.100849
##########                     Grid_vdw_energy:          -30.187168
##########                      Grid_es_energy:            0.086319
##########           Internal_energy_repulsive:           77.892220

@<TRIPOS>MOLECULE
ZINC000840464592
 58 59 1 0 0
SMALL
USER_CHARGES


@<TRIPOS>ATOM
      1 C1         -8.2930    0.4336   65.5151 C.3     1  ZINC000840464592   -0.1500
      2 C2         -9.5013    0.4202   64.5766 C.3     1  ZINC000840464592   -0.1300
      3 C3         -9.3754   -0.7504   63.5997 C.3     1  ZINC000840464592   -0.1200
      4 C4        -10.5926   -0.7747   62.6730 C.3     1  ZINC000840464592   -0.1200
      5 C5        -10.4619   -1.9394   61.6897 C.3     1  ZINC000840464592   -0.1200
      6 C6        -11.6637   -1.9449   60.7428 C.3     1  ZINC000840464592    0.0600
      7 O7        -11.7957   -3.2374   60.1480 O.3     1  ZINC000840464592   -0.3600
      8 C8        -11.4531   -3.2769   58.7612 C.3     1  ZINC000840464592    0.0800
      9 H9        -11.6556   -2.3059   58.3092 H       1  ZINC000840464592    0.0800
     10 C10        -9.9670   -3.6088   58.6122 C.3     1  ZINC000840464592   -0.1800
     11 C11       -12.2756   -4.3339   58.0704 C.2     1  ZINC000840464592    0.5200
     12 O12       -11.8302   -5.4532   57.9299 O.2     1  ZINC000840464592   -0.5000
     13 N13       -13.5061   -4.0354   57.6087 N.am    1  ZINC000840464592   -0.6000
     14 C14       -14.2997   -5.0633   56.9398 C.3     1  ZINC000840464592    0.0900
     15 C15       -14.5831   -4.6940   55.4880 C.3     1  ZINC000840464592   -0.1600
     16 C16       -15.4157   -3.4116   55.4226 C.3     1  ZINC000840464592    0.0800
     17 N17       -14.5134   -2.2552   55.3983 N.am    1  ZINC000840464592   -0.7200
     18 C18       -13.8260   -1.9076   56.4977 C.2     1  ZINC000840464592    0.5100
     19 O19       -13.0414   -0.9833   56.4632 O.2     1  ZINC000840464592   -0.5200
     20 C20       -14.0432   -2.6822   57.7862 C.3     1  ZINC000840464592    0.1400
     21 H21       -13.5220   -2.1849   58.6041 H       1  ZINC000840464592    0.1300
     22 C22       -15.5396   -2.7510   58.0976 C.3     1  ZINC000840464592   -0.1000
     23 C23       -15.7716   -2.3653   59.5358 C.ar    1  ZINC000840464592   -0.0900
     24 C24       -15.9464   -1.0367   59.8755 C.ar    1  ZINC000840464592   -0.1100
     25 C25       -16.1592   -0.6828   61.1947 C.ar    1  ZINC000840464592   -0.1200
     26 C26       -16.1978   -1.6576   62.1741 C.ar    1  ZINC000840464592   -0.1200
     27 C27       -16.0241   -2.9861   61.8343 C.ar    1  ZINC000840464592   -0.1200
     28 C28       -15.8154   -3.3404   60.5146 C.ar    1  ZINC000840464592   -0.1100
     29 H29        -7.3800    0.5451   64.9303 H       1  ZINC000840464592    0.0500
     30 H30        -8.3828    1.2677   66.2111 H       1  ZINC000840464592    0.0500
     31 H31        -8.2556   -0.5023   66.0725 H       1  ZINC000840464592    0.0500
     32 H32       -10.4144    0.3089   65.1615 H       1  ZINC000840464592    0.0600
     33 H33        -9.5388    1.3562   64.0191 H       1  ZINC000840464592    0.0600
     34 H34        -8.4690   -0.6323   63.0058 H       1  ZINC000840464592    0.0600
     35 H35        -9.3249   -1.6854   64.1577 H       1  ZINC000840464592    0.0600
     36 H36       -11.4984   -0.9000   63.2663 H       1  ZINC000840464592    0.0600
     37 H37       -10.6472    0.1631   62.1202 H       1  ZINC000840464592    0.0600
     38 H38        -9.5446   -1.8259   61.1118 H       1  ZINC000840464592    0.0700
     39 H39       -10.4299   -2.8789   62.2414 H       1  ZINC000840464592    0.0700
     40 H40       -12.5684   -1.7085   61.3027 H       1  ZINC000840464592    0.0500
     41 H41       -11.5144   -1.1991   59.9619 H       1  ZINC000840464592    0.0500
     42 H42        -9.7213   -3.7091   57.5550 H       1  ZINC000840464592    0.0800
     43 H43        -9.3703   -2.8084   59.0496 H       1  ZINC000840464592    0.0700
     44 H44        -9.7507   -4.5455   59.1259 H       1  ZINC000840464592    0.0800
     45 H45       -13.7557   -6.0074   56.9674 H       1  ZINC000840464592    0.1000
     46 H46       -15.2456   -5.1830   57.4680 H       1  ZINC000840464592    0.0800
     47 H47       -13.6400   -4.5396   54.9638 H       1  ZINC000840464592    0.0800
     48 H48       -15.1314   -5.5054   55.0093 H       1  ZINC000840464592    0.1000
     49 H49       -16.0245   -3.4180   54.5184 H       1  ZINC000840464592    0.0900
     50 H50       -16.0619   -3.3515   56.2982 H       1  ZINC000840464592    0.1000
     51 H51       -14.4127   -1.7390   54.5832 H       1  ZINC000840464592    0.4000
     52 H52       -16.0785   -2.0636   57.4456 H       1  ZINC000840464592    0.0900
     53 H53       -15.8990   -3.7665   57.9313 H       1  ZINC000840464592    0.1000
     54 H54       -15.9162   -0.2751   59.1103 H       1  ZINC000840464592    0.1200
     55 H55       -16.2950    0.3552   61.4602 H       1  ZINC000840464592    0.1200
     56 H56       -16.3634   -1.3810   63.2050 H       1  ZINC000840464592    0.1200
     57 H57       -16.0538   -3.7476   62.5997 H       1  ZINC000840464592    0.1200
     58 H58       -15.6796   -4.3784   60.2491 H       1  ZINC000840464592    0.1200
@<TRIPOS>BOND
     1     1     2    1
     2     1    29    1
     3     1    30    1
     4     1    31    1
     5     2     3    1
     6     2    32    1
     7     2    33    1
     8     3     4    1
     9     3    34    1
    10     3    35    1
    11     4     5    1
    12     4    36    1
    13     4    37    1
    14     5     6    1
    15     5    38    1
    16     5    39    1
    17     6     7    1
    18     6    40    1
    19     6    41    1
    20     7     8    1
    21     8     9    1
    22     8    10    1
    23     8    11    1
    24    10    42    1
    25    10    43    1
    26    10    44    1
    27    11    12    2
    28    11    13   am
    29    13    20    1
    30    13    14    1
    31    14    15    1
    32    14    45    1
    33    14    46    1
    34    15    16    1
    35    15    47    1
    36    15    48    1
    37    16    17    1
    38    16    49    1
    39    16    50    1
    40    17    18   am
    41    17    51    1
    42    18    19    2
    43    18    20    1
    44    20    21    1
    45    20    22    1
    46    22    23    1
    47    22    52    1
    48    22    53    1
    49    23    28   ar
    50    23    24   ar
    51    24    25   ar
    52    24    54    1
    53    25    26   ar
    54    25    55    1
    55    26    27   ar
    56    26    56    1
    57    27    28   ar
    58    27    57    1
    59    28    58    1
@<TRIPOS>SUBSTRUCTURE
     1 ZINC000840464592        1 TEMP              0 ****  ****    0 ROOT


##########                                Name:    ZINC000481050680
##########                DOCK_Rotatable_Bonds:                   7
##########                         Heavy_Atoms:                  29
##########                    Molecular_Weight:              412.46
##########                DOCK_Rotatable_Bonds:                   7
##########                       Formal_Charge:          -0.0199997
##########                     HBond_Acceptors:                   7
##########                        HBond_Donors:                   1
##########                         Heavy_Atoms:                  29
##########                          Grid_Score:          -30.062979
##########                     Grid_vdw_energy:          -28.782606
##########                      Grid_es_energy:           -1.280373
##########           Internal_energy_repulsive:           10.446176

@<TRIPOS>MOLECULE
ZINC000481050680
 47 49 1 0 0
SMALL
USER_CHARGES


@<TRIPOS>ATOM
      1 N1         -8.9899   -0.8144   64.6240 N.1     1  ZINC000481050680   -0.3900
      2 C2         -9.2668   -0.6556   63.5339 C.1     1  ZINC000481050680    0.2500
      3 C3         -9.6159   -0.4553   62.1595 C.ar    1  ZINC000481050680    0.0200
      4 C4        -10.0080    0.8079   61.7128 C.ar    1  ZINC000481050680   -0.0800
      5 C5        -10.3428    0.9954   60.3875 C.ar    1  ZINC000481050680   -0.0800
      6 C6        -10.2910   -0.0645   59.5007 C.ar    1  ZINC000481050680   -0.1000
      7 C7        -10.6582    0.1483   58.0547 C.3     1  ZINC000481050680   -0.5900
      8 S8         -9.3882    1.1646   57.2516 S.o2    1  ZINC000481050680    2.6000
      9 O9         -9.3080    2.4421   57.8686 O.2     1  ZINC000481050680   -0.9300
     10 O10        -8.2189    0.3965   57.0024 O.2     1  ZINC000481050680   -0.9400
     11 N11       -10.0005    1.4766   55.7448 N.am    1  ZINC000481050680   -1.1100
     12 C12       -10.3067    0.3700   54.8350 C.3     1  ZINC000481050680    0.2100
     13 H13        -9.6328   -0.4628   55.0363 H       1  ZINC000481050680    0.1000
     14 C14       -10.1257    0.8342   53.3883 C.3     1  ZINC000481050680   -0.0800
     15 C15        -8.6611    0.8148   53.0341 C.ar    1  ZINC000481050680   -0.0900
     16 C16        -8.1544   -0.2008   52.2450 C.ar    1  ZINC000481050680   -0.1200
     17 C17        -6.8108   -0.2187   51.9200 C.ar    1  ZINC000481050680   -0.1200
     18 C18        -5.9742    0.7792   52.3838 C.ar    1  ZINC000481050680   -0.1200
     19 C19        -6.4811    1.7952   53.1723 C.ar    1  ZINC000481050680   -0.1200
     20 C20        -7.8255    1.8155   53.4937 C.ar    1  ZINC000481050680   -0.1200
     21 C21       -11.7311   -0.0741   55.0456 C.ar    1  ZINC000481050680   -0.1300
     22 C22       -12.7356    0.8655   55.1786 C.ar    1  ZINC000481050680   -0.0700
     23 C23       -14.0427    0.4582   55.3719 C.ar    1  ZINC000481050680   -0.1300
     24 C24       -14.3462   -0.8889   55.4329 C.ar    1  ZINC000481050680   -0.0900
     25 C25       -13.3431   -1.8305   55.3007 C.ar    1  ZINC000481050680   -0.1500
     26 C26       -12.0349   -1.4241   55.1004 C.ar    1  ZINC000481050680    0.1100
     27 F27       -11.0536   -2.3436   54.9710 F       1  ZINC000481050680   -0.1400
     28 C28        -9.9023   -1.3217   59.9360 C.ar    1  ZINC000481050680    0.1200
     29 F29        -9.8535   -2.3523   59.0639 F       1  ZINC000481050680   -0.1200
     30 C30        -9.5599   -1.5213   61.2595 C.ar    1  ZINC000481050680   -0.1000
     31 H31       -10.0496    1.6372   62.4036 H       1  ZINC000481050680    0.1500
     32 H32       -10.6466    1.9725   60.0417 H       1  ZINC000481050680    0.1500
     33 H33       -10.7241   -0.8160   57.5507 H       1  ZINC000481050680    0.1500
     34 H34       -11.6209    0.6559   57.9952 H       1  ZINC000481050680    0.1500
     35 H35       -10.1565    2.3922   55.4648 H       1  ZINC000481050680    0.4200
     36 H36       -10.6698    0.1654   52.7215 H       1  ZINC000481050680    0.0900
     37 H37       -10.5122    1.8477   53.2811 H       1  ZINC000481050680    0.0900
     38 H38        -8.8080   -0.9804   51.8825 H       1  ZINC000481050680    0.1200
     39 H39        -6.4148   -1.0125   51.3040 H       1  ZINC000481050680    0.1200
     40 H40        -4.9244    0.7648   52.1305 H       1  ZINC000481050680    0.1200
     41 H41        -5.8274    2.5746   53.5350 H       1  ZINC000481050680    0.1200
     42 H42        -8.2215    2.6093   54.1096 H       1  ZINC000481050680    0.1200
     43 H43       -12.4995    1.9183   55.1318 H       1  ZINC000481050680    0.1300
     44 H44       -14.8271    1.1933   55.4757 H       1  ZINC000481050680    0.1300
     45 H45       -15.3675   -1.2058   55.5843 H       1  ZINC000481050680    0.1300
     46 H46       -13.5804   -2.8831   55.3490 H       1  ZINC000481050680    0.1400
     47 H47        -9.2567   -2.5008   61.5987 H       1  ZINC000481050680    0.1600
@<TRIPOS>BOND
     1     1     2    3
     2     2     3    1
     3     3    30   ar
     4     3     4   ar
     5     4     5   ar
     6     4    31    1
     7     5     6   ar
     8     5    32    1
     9     6     7    1
    10     6    28   ar
    11     7     8    1
    12     7    33    1
    13     7    34    1
    14     8     9    2
    15     8    10    2
    16     8    11   am
    17    11    12    1
    18    11    35    1
    19    12    13    1
    20    12    14    1
    21    12    21    1
    22    14    15    1
    23    14    36    1
    24    14    37    1
    25    15    20   ar
    26    15    16   ar
    27    16    17   ar
    28    16    38    1
    29    17    18   ar
    30    17    39    1
    31    18    19   ar
    32    18    40    1
    33    19    20   ar
    34    19    41    1
    35    20    42    1
    36    21    26   ar
    37    21    22   ar
    38    22    23   ar
    39    22    43    1
    40    23    24   ar
    41    23    44    1
    42    24    25   ar
    43    24    45    1
    44    25    26   ar
    45    25    46    1
    46    26    27    1
    47    28    29    1
    48    28    30   ar
    49    30    47    1
@<TRIPOS>SUBSTRUCTURE
     1 ZINC000481050680        1 TEMP              0 ****  ****    0 ROOT


##########                                Name:    ZINC000461678839
##########                DOCK_Rotatable_Bonds:                   6
##########                         Heavy_Atoms:                  28
##########                    Molecular_Weight:             404.939
##########                DOCK_Rotatable_Bonds:                   6
##########                       Formal_Charge:          -0.0200003
##########                     HBond_Acceptors:                   7
##########                        HBond_Donors:                   0
##########                         Heavy_Atoms:                  28
##########                          Grid_Score:          -30.059158
##########                     Grid_vdw_energy:          -28.772812
##########                      Grid_es_energy:           -1.286346
##########           Internal_energy_repulsive:           25.060009

@<TRIPOS>MOLECULE
ZINC000461678839
 57 60 1 0 0
SMALL
USER_CHARGES


@<TRIPOS>ATOM
      1 C1         -9.3298   -0.1921   63.7915 C.3     1  ZINC000461678839   -0.1500
      2 C2         -9.7024   -0.3158   62.3127 C.3     1  ZINC000461678839   -0.0900
      3 H3         -8.7934   -0.4557   61.7277 H       1  ZINC000461678839    0.0700
      4 C4        -10.3991    0.9864   61.8579 C.3     1  ZINC000461678839   -0.1100
      5 C5        -10.3707    1.0539   60.3543 C.3     1  ZINC000461678839   -0.1200
      6 C6        -11.6206    0.4362   59.7024 C.3     1  ZINC000461678839    0.0600
      7 N7        -12.0463   -0.8312   60.3359 N.3     1  ZINC000461678839   -0.4600
      8 C8        -12.9918   -1.4818   59.5591 C.2     1  ZINC000461678839    0.3700
      9 N9        -13.0460   -1.4991   58.2482 N.2     1  ZINC000461678839   -0.3100
     10 N10       -14.0522   -2.1994   57.8620 N.2     1  ZINC000461678839   -0.2500
     11 C11       -14.6943   -2.6664   58.8951 C.2     1  ZINC000461678839    0.1700
     12 C12       -15.9273   -3.5325   58.8638 C.3     1  ZINC000461678839    0.1500
     13 O13       -15.5695   -4.8561   58.4612 O.3     1  ZINC000461678839   -0.3100
     14 C14       -15.4499   -5.0839   57.1265 C.ar    1  ZINC000461678839    0.1400
     15 C15       -15.1180   -6.3492   56.6650 C.ar    1  ZINC000461678839   -0.2000
     16 C16       -14.9968   -6.5787   55.3081 C.ar    1  ZINC000461678839   -0.0700
     17 C17       -15.2058   -5.5475   54.4097 C.ar    1  ZINC000461678839   -0.0700
     18 Cl18      -15.0524   -5.8382   52.7051 Cl      1  ZINC000461678839   -0.0700
     19 C19       -15.5374   -4.2848   54.8681 C.ar    1  ZINC000461678839   -0.0700
     20 C20       -15.6651   -4.0527   56.2239 C.ar    1  ZINC000461678839   -0.1400
     21 N21       -14.0386   -2.2302   60.0129 N.pl3   1  ZINC000461678839   -0.4600
     22 C22       -14.3918   -2.5025   61.4084 C.3     1  ZINC000461678839    0.1200
     23 C23       -15.4199   -1.4743   61.8843 C.3     1  ZINC000461678839   -0.1400
     24 H24       -16.2333   -1.3879   61.1637 H       1  ZINC000461678839    0.0900
     25 C25       -14.7466   -0.0986   62.1088 C.3     1  ZINC000461678839   -0.1500
     26 C26       -15.4325    0.3901   63.4099 C.3     1  ZINC000461678839    0.0500
     27 O27       -15.5811   -0.8178   64.1866 O.3     1  ZINC000461678839   -0.3700
     28 C28       -15.9674   -1.8614   63.2718 C.3     1  ZINC000461678839    0.0400
     29 C29       -10.9506   -1.7117   60.6625 C.3     1  ZINC000461678839    0.0700
     30 C30       -10.5663   -1.4776   62.1352 C.3     1  ZINC000461678839   -0.1100
     31 H31        -8.8209   -1.1001   64.1151 H       1  ZINC000461678839    0.0500
     32 H32        -8.6687    0.6636   63.9293 H       1  ZINC000461678839    0.0500
     33 H33       -10.2342   -0.0517   64.3835 H       1  ZINC000461678839    0.0600
     34 H34       -11.4327    0.9875   62.2040 H       1  ZINC000461678839    0.0700
     35 H35        -9.8725    1.8462   62.2720 H       1  ZINC000461678839    0.0700
     36 H36       -10.2963    2.0983   60.0512 H       1  ZINC000461678839    0.0800
     37 H37        -9.4889    0.5230   59.9956 H       1  ZINC000461678839    0.0700
     38 H38       -12.4397    1.1524   59.7683 H       1  ZINC000461678839    0.0700
     39 H39       -11.4089    0.2470   58.6500 H       1  ZINC000461678839    0.0500
     40 H40       -16.3749   -3.5633   59.8571 H       1  ZINC000461678839    0.0800
     41 H41       -16.6441   -3.1182   58.1548 H       1  ZINC000461678839    0.1000
     42 H42       -14.9541   -7.1543   57.3659 H       1  ZINC000461678839    0.1400
     43 H43       -14.7384   -7.5638   54.9484 H       1  ZINC000461678839    0.1400
     44 H44       -15.7005   -3.4811   54.1653 H       1  ZINC000461678839    0.1400
     45 H45       -15.9239   -3.0669   56.5814 H       1  ZINC000461678839    0.1400
     46 H46       -14.8158   -3.5037   61.4871 H       1  ZINC000461678839    0.1100
     47 H47       -13.4981   -2.4368   62.0288 H       1  ZINC000461678839    0.1000
     48 H48       -13.6721   -0.2105   62.2539 H       1  ZINC000461678839    0.0800
     49 H49       -14.9575    0.5776   61.2804 H       1  ZINC000461678839    0.0900
     50 H50       -14.7986    1.1067   63.9322 H       1  ZINC000461678839    0.1000
     51 H51       -16.4066    0.8269   63.1896 H       1  ZINC000461678839    0.0600
     52 H52       -17.0540   -1.9395   63.2362 H       1  ZINC000461678839    0.0500
     53 H53       -15.5357   -2.8107   63.5886 H       1  ZINC000461678839    0.1100
     54 H54       -11.2581   -2.7481   60.5230 H       1  ZINC000461678839    0.0900
     55 H55       -10.0982   -1.4912   60.0201 H       1  ZINC000461678839    0.0600
     56 H56       -10.0475   -2.3607   62.5082 H       1  ZINC000461678839    0.0700
     57 H57       -11.4762   -1.3341   62.7180 H       1  ZINC000461678839    0.0700
@<TRIPOS>BOND
     1     1     2    1
     2     1    31    1
     3     1    32    1
     4     1    33    1
     5     2     3    1
     6     2    30    1
     7     2     4    1
     8     4     5    1
     9     4    34    1
    10     4    35    1
    11     5     6    1
    12     5    36    1
    13     5    37    1
    14     6     7    1
    15     6    38    1
    16     6    39    1
    17     7     8    1
    18     7    29    1
    19     8    21    1
    20     8     9    2
    21     9    10    1
    22    10    11    2
    23    11    12    1
    24    11    21    1
    25    12    13    1
    26    12    40    1
    27    12    41    1
    28    13    14    1
    29    14    20   ar
    30    14    15   ar
    31    15    16   ar
    32    15    42    1
    33    16    17   ar
    34    16    43    1
    35    17    18    1
    36    17    19   ar
    37    19    20   ar
    38    19    44    1
    39    20    45    1
    40    21    22    1
    41    22    23    1
    42    22    46    1
    43    22    47    1
    44    23    24    1
    45    23    28    1
    46    23    25    1
    47    25    26    1
    48    25    48    1
    49    25    49    1
    50    26    27    1
    51    26    50    1
    52    26    51    1
    53    27    28    1
    54    28    52    1
    55    28    53    1
    56    29    30    1
    57    29    54    1
    58    29    55    1
    59    30    56    1
    60    30    57    1
@<TRIPOS>SUBSTRUCTURE
     1 ZINC000461678839        1 TEMP              0 ****  ****    0 ROOT


##########                                Name:    ZINC000957079511
##########                DOCK_Rotatable_Bonds:                   8
##########                         Heavy_Atoms:                  25
##########                    Molecular_Weight:             362.453
##########                DOCK_Rotatable_Bonds:                   8
##########                       Formal_Charge:        -4.32134e-07
##########                     HBond_Acceptors:                   8
##########                        HBond_Donors:                   2
##########                         Heavy_Atoms:                  25
##########                          Grid_Score:          -30.053524
##########                     Grid_vdw_energy:          -28.658764
##########                      Grid_es_energy:           -1.394760
##########           Internal_energy_repulsive:            9.481037

@<TRIPOS>MOLECULE
ZINC000957079511
 47 49 1 0 0
SMALL
USER_CHARGES


@<TRIPOS>ATOM
      1 C1          0.5313    1.9706   43.7508 C.3     1  ZINC000957079511   -0.0700
      2 C2          0.9373    0.9731   44.8049 C.2     1  ZINC000957079511    0.0300
      3 C3          0.2235    0.6417   45.8976 C.2     1  ZINC000957079511   -0.0200
      4 C4         -1.1214    1.1944   46.2938 C.3     1  ZINC000957079511   -0.0600
      5 C5         -1.2302    1.2219   47.7966 C.2     1  ZINC000957079511    0.5100
      6 O6         -1.8475    0.3534   48.3759 O.2     1  ZINC000957079511   -0.5200
      7 N7         -0.6417    2.2117   48.4969 N.am    1  ZINC000957079511   -0.7200
      8 C8         -0.7490    2.2394   49.9577 C.3     1  ZINC000957079511    0.1400
      9 H9         -0.8063    1.2289   50.3623 H       1  ZINC000957079511    0.1100
     10 C10        -1.9637    3.0881   50.4092 C.3     1  ZINC000957079511    0.0800
     11 N11        -1.6241    3.5383   51.7713 N.am    1  ZINC000957079511   -0.6200
     12 C12        -2.5082    3.8966   52.7234 C.2     1  ZINC000957079511    0.5400
     13 O13        -2.1142    4.2504   53.8146 O.2     1  ZINC000957079511   -0.5100
     14 C14        -3.9863    3.8575   52.4322 C.3     1  ZINC000957079511    0.0500
     15 O15        -4.4616    2.5159   52.5597 O.3     1  ZINC000957079511   -0.2800
     16 C16        -5.8113    2.3332   52.5384 C.2     1  ZINC000957079511    0.1200
     17 C17        -6.6740    3.3504   52.4563 C.2     1  ZINC000957079511   -0.3300
     18 S18        -8.3196    2.7300   52.4546 S.3     1  ZINC000957079511    0.1300
     19 C19        -7.7301    1.0770   52.5685 C.2     1  ZINC000957079511   -0.1800
     20 C20        -6.3959    1.0771   52.5944 C.2     1  ZINC000957079511   -0.1400
     21 C21        -0.1613    3.5309   51.9194 C.3     1  ZINC000957079511    0.1100
     22 C22         0.4320    3.0243   50.5874 C.3     1  ZINC000957079511   -0.1100
     23 H23         0.7210    3.8609   49.9511 H       1  ZINC000957079511    0.0900
     24 C24         1.6265    2.1030   50.8425 C.3     1  ZINC000957079511   -0.1400
     25 N25         0.9539   -0.2941   46.5791 N.pl3   1  ZINC000957079511   -0.5600
     26 C26         2.0896   -0.5021   45.8786 C.2     1  ZINC000957079511    0.2000
     27 N27         2.0705    0.2555   44.8161 N.2     1  ZINC000957079511   -0.4900
     28 H28        -0.0345    1.4634   42.9693 H       1  ZINC000957079511    0.0700
     29 H29        -0.0880    2.7453   44.2029 H       1  ZINC000957079511    0.0600
     30 H30         1.4226    2.4246   43.3176 H       1  ZINC000957079511    0.0700
     31 H31        -1.2276    2.2065   45.9033 H       1  ZINC000957079511    0.1000
     32 H32        -1.9090    0.5623   45.8839 H       1  ZINC000957079511    0.1200
     33 H33        -0.1469    2.9057   48.0337 H       1  ZINC000957079511    0.4000
     34 H34        -2.0945    3.9449   49.7481 H       1  ZINC000957079511    0.0800
     35 H35        -2.8673    2.4788   50.4252 H       1  ZINC000957079511    0.0800
     36 H36        -4.5129    4.4981   53.1395 H       1  ZINC000957079511    0.0900
     37 H37        -4.1662    4.2118   51.4173 H       1  ZINC000957079511    0.0900
     38 H38        -6.4022    4.3942   52.4001 H       1  ZINC000957079511    0.1700
     39 H39        -8.3530    0.1957   52.6073 H       1  ZINC000957079511    0.1800
     40 H40        -5.8159    0.1685   52.6617 H       1  ZINC000957079511    0.1500
     41 H41         0.1956    4.5402   52.1246 H       1  ZINC000957079511    0.0800
     42 H42         0.1257    2.8618   52.7306 H       1  ZINC000957079511    0.0800
     43 H43         1.3097    1.2586   51.4548 H       1  ZINC000957079511    0.0600
     44 H44         2.0129    1.7373   49.8911 H       1  ZINC000957079511    0.0600
     45 H45         2.4077    2.6567   51.3632 H       1  ZINC000957079511    0.0700
     46 H46         0.7028   -0.7270   47.4100 H       1  ZINC000957079511    0.4200
     47 H47         2.8807   -1.1853   46.1504 H       1  ZINC000957079511    0.2100
@<TRIPOS>BOND
     1     1     2    1
     2     1    28    1
     3     1    29    1
     4     1    30    1
     5     2    27    1
     6     2     3    2
     7     3     4    1
     8     3    25    1
     9     4     5    1
    10     4    31    1
    11     4    32    1
    12     5     6    2
    13     5     7   am
    14     7     8    1
    15     7    33    1
    16     8     9    1
    17     8    22    1
    18     8    10    1
    19    10    11    1
    20    10    34    1
    21    10    35    1
    22    11    12   am
    23    11    21    1
    24    12    13    2
    25    12    14    1
    26    14    15    1
    27    14    36    1
    28    14    37    1
    29    15    16    1
    30    16    20    1
    31    16    17    2
    32    17    18    1
    33    17    38    1
    34    18    19    1
    35    19    20    2
    36    19    39    1
    37    20    40    1
    38    21    22    1
    39    21    41    1
    40    21    42    1
    41    22    23    1
    42    22    24    1
    43    24    43    1
    44    24    44    1
    45    24    45    1
    46    25    26    1
    47    25    46    1
    48    26    27    2
    49    26    47    1
@<TRIPOS>SUBSTRUCTURE
     1 ZINC000957079511        1 TEMP              0 ****  ****    0 ROOT


##########                                Name:    ZINC001000186632
##########                DOCK_Rotatable_Bonds:                   7
##########                         Heavy_Atoms:                  23
##########                    Molecular_Weight:             342.379
##########                DOCK_Rotatable_Bonds:                   7
##########                       Formal_Charge:          -0.0100001
##########                     HBond_Acceptors:                  11
##########                        HBond_Donors:                   2
##########                         Heavy_Atoms:                  23
##########                          Grid_Score:          -30.021875
##########                     Grid_vdw_energy:          -29.023003
##########                      Grid_es_energy:           -0.998872
##########           Internal_energy_repulsive:            4.335897

@<TRIPOS>MOLECULE
ZINC001000186632
 41 43 1 0 0
SMALL
USER_CHARGES


@<TRIPOS>ATOM
      1 O1         -0.1025    2.9649   53.3354 O.2     1  ZINC001000186632   -0.5200
      2 C2          0.7224    3.2566   52.4955 C.2     1  ZINC001000186632    0.5300
      3 C3          2.1908    3.1981   52.8294 C.3     1  ZINC001000186632   -0.0500
      4 C4          2.7368    1.8434   52.4584 C.2     1  ZINC001000186632    0.2400
      5 N5          2.3108    1.0965   51.4739 N.2     1  ZINC001000186632   -0.3000
      6 N6          3.0903   -0.0718   51.4843 N.pl3   1  ZINC001000186632   -0.4800
      7 C7          3.9556    0.0596   52.5046 C.2     1  ZINC001000186632    0.2700
      8 N8          3.7359    1.2153   53.0770 N.2     1  ZINC001000186632   -0.5400
      9 N9          0.3261    3.6274   51.2619 N.am    1  ZINC001000186632   -0.7100
     10 C10        -1.1013    3.6842   50.9373 C.3     1  ZINC001000186632    0.1100
     11 C11        -1.4111    4.4453   49.6355 C.3     1  ZINC001000186632    0.1000
     12 N12        -1.2861    3.1390   48.9603 N.am    1  ZINC001000186632   -0.6500
     13 C13        -0.9857    2.7491   47.7055 C.2     1  ZINC001000186632    0.5100
     14 O14        -0.7468    3.5788   46.8536 O.2     1  ZINC001000186632   -0.5100
     15 C15        -0.9467    1.2826   47.3611 C.3     1  ZINC001000186632    0.1500
     16 N16        -0.0924    1.0789   46.1885 N.am    1  ZINC001000186632   -0.9800
     17 C17         1.3738    1.1857   46.1503 C.3     1  ZINC001000186632    0.0800
     18 C18         1.9445    0.2558   45.0626 C.3     1  ZINC001000186632   -0.1300
     19 C19         1.0266    0.4980   43.8297 C.3     1  ZINC001000186632   -0.6000
     20 S20        -0.6039    0.6756   44.6507 S.o2    1  ZINC001000186632    2.5700
     21 O21        -1.2518   -0.5818   44.7867 O.2     1  ZINC001000186632   -0.9400
     22 O22        -1.2937    1.8262   44.1823 O.2     1  ZINC001000186632   -0.9600
     23 C23        -1.6221    2.4309   50.2107 C.3     1  ZINC001000186632    0.0900
     24 H24         2.7215    3.9692   52.2707 H       1  ZINC001000186632    0.1300
     25 H25         2.3274    3.3648   53.8979 H       1  ZINC001000186632    0.1200
     26 H26         3.0184   -0.8241   50.8762 H       1  ZINC001000186632    0.4400
     27 H27         4.7041   -0.6616   52.7983 H       1  ZINC001000186632    0.2200
     28 H28         0.9861    3.8568   50.5890 H       1  ZINC001000186632    0.4100
     29 H29        -1.7177    3.9890   51.7831 H       1  ZINC001000186632    0.1200
     30 H30        -2.4170    4.8637   49.6000 H       1  ZINC001000186632    0.1000
     31 H31        -0.6407    5.1621   49.3516 H       1  ZINC001000186632    0.0900
     32 H32        -0.5450    0.7217   48.2050 H       1  ZINC001000186632    0.1100
     33 H33        -1.9557    0.9342   47.1405 H       1  ZINC001000186632    0.1100
     34 H34         1.6555    2.2153   45.9295 H       1  ZINC001000186632    0.0800
     35 H35         1.7821    0.9007   47.1199 H       1  ZINC001000186632    0.0900
     36 H36         2.9741    0.5277   44.8305 H       1  ZINC001000186632    0.1100
     37 H37         1.8869   -0.7848   45.3821 H       1  ZINC001000186632    0.1000
     38 H38         1.3074    1.4101   43.3031 H       1  ZINC001000186632    0.1400
     39 H39         1.0350   -0.3605   43.1580 H       1  ZINC001000186632    0.1400
     40 H40        -1.0199    1.5394   50.3862 H       1  ZINC001000186632    0.0900
     41 H41        -2.6899    2.2575   50.3442 H       1  ZINC001000186632    0.1100
@<TRIPOS>BOND
     1     1     2    2
     2     2     3    1
     3     2     9   am
     4     3     4    1
     5     3    24    1
     6     3    25    1
     7     4     8    1
     8     4     5    2
     9     5     6    1
    10     6     7    1
    11     6    26    1
    12     7     8    2
    13     7    27    1
    14     9    10    1
    15     9    28    1
    16    10    23    1
    17    10    11    1
    18    10    29    1
    19    11    12    1
    20    11    30    1
    21    11    31    1
    22    12    13   am
    23    12    23    1
    24    13    14    2
    25    13    15    1
    26    15    16    1
    27    15    32    1
    28    15    33    1
    29    16    20   am
    30    16    17    1
    31    17    18    1
    32    17    34    1
    33    17    35    1
    34    18    19    1
    35    18    36    1
    36    18    37    1
    37    19    20    1
    38    19    38    1
    39    19    39    1
    40    20    21    2
    41    20    22    2
    42    23    40    1
    43    23    41    1
@<TRIPOS>SUBSTRUCTURE
     1 ZINC001000186632        1 TEMP              0 ****  ****    0 ROOT


##########                                Name:    ZINC000822449555
##########                DOCK_Rotatable_Bonds:                   5
##########                         Heavy_Atoms:                  27
##########                    Molecular_Weight:             366.383
##########                DOCK_Rotatable_Bonds:                   5
##########                       Formal_Charge:          -0.0100009
##########                     HBond_Acceptors:                  10
##########                        HBond_Donors:                   2
##########                         Heavy_Atoms:                  27
##########                          Grid_Score:          -30.015940
##########                     Grid_vdw_energy:          -30.491348
##########                      Grid_es_energy:            0.475408
##########           Internal_energy_repulsive:            8.608775

@<TRIPOS>MOLECULE
ZINC000822449555
 45 48 1 0 0
SMALL
USER_CHARGES


@<TRIPOS>ATOM
      1 C1        -15.8494   -2.7168   58.6259 C.3     1  ZINC000822449555   -0.1100
      2 C2        -14.3479   -2.6016   58.5648 C.ar    1  ZINC000822449555    0.1400
      3 N3        -13.7003   -1.9943   59.5406 N.ar    1  ZINC000822449555   -0.5000
      4 C4        -12.3824   -1.8698   59.5288 C.ar    1  ZINC000822449555    0.3000
      5 N5        -11.7430   -1.2206   60.5814 N.3     1  ZINC000822449555   -0.4700
      6 C6        -11.1704    0.0597   60.1407 C.3     1  ZINC000822449555    0.0200
      7 C7        -10.5308    0.7659   61.3390 C.3     1  ZINC000822449555    0.0600
      8 O8         -9.5487   -0.0935   61.9239 O.3     1  ZINC000822449555   -0.3800
      9 C9        -10.0720   -1.3494   62.3650 C.3     1  ZINC000822449555    0.0600
     10 C10       -10.7070   -2.0770   61.1771 C.3     1  ZINC000822449555    0.0300
     11 C11       -11.6294   -2.3806   58.4770 C.ar    1  ZINC000822449555   -0.1700
     12 C12       -12.2743   -3.0237   57.4363 C.ar    1  ZINC000822449555   -0.0500
     13 C13       -13.6625   -3.1400   57.4861 C.ar    1  ZINC000822449555    0.0600
     14 N14       -14.3577   -3.7836   56.4538 N.am    1  ZINC000822449555   -0.6600
     15 C15       -14.3751   -5.1297   56.3901 C.2     1  ZINC000822449555    0.5700
     16 O16       -13.7873   -5.7857   57.2284 O.2     1  ZINC000822449555   -0.5100
     17 C17       -15.1079   -5.8080   55.3019 C.ar    1  ZINC000822449555   -0.1800
     18 C18       -15.6524   -5.0684   54.2433 C.ar    1  ZINC000822449555   -0.0100
     19 C19       -16.3293   -5.7466   53.2486 C.ar    1  ZINC000822449555   -0.1300
     20 C20       -16.4476   -7.1334   53.3296 C.ar    1  ZINC000822449555    0.2300
     21 C21       -17.1729   -7.8695   52.2656 C.2     1  ZINC000822449555    0.2100
     22 N22       -17.7425   -7.3494   51.1959 N.2     1  ZINC000822449555   -0.2500
     23 N23       -18.2654   -8.3137   50.5196 N.pl3   1  ZINC000822449555   -0.2200
     24 N24       -18.0455   -9.4277   51.1261 N.2     1  ZINC000822449555   -0.0400
     25 N25       -17.3720   -9.1940   52.2009 N.2     1  ZINC000822449555   -0.2500
     26 N26       -15.9192   -7.8039   54.3464 N.ar    1  ZINC000822449555   -0.4500
     27 C27       -15.2629   -7.1961   55.3103 C.ar    1  ZINC000822449555    0.1400
     28 H28       -16.1224   -3.6370   59.1426 H       1  ZINC000822449555    0.0800
     29 H29       -16.2577   -1.8623   59.1654 H       1  ZINC000822449555    0.0800
     30 H30       -16.2539   -2.7347   57.6139 H       1  ZINC000822449555    0.0700
     31 H31       -10.4125   -0.1234   59.3791 H       1  ZINC000822449555    0.0600
     32 H32       -11.9592    0.6878   59.7266 H       1  ZINC000822449555    0.1000
     33 H33       -10.0552    1.6886   61.0064 H       1  ZINC000822449555    0.1100
     34 H34       -11.2984    0.9971   62.0775 H       1  ZINC000822449555    0.0600
     35 H35        -9.2646   -1.9565   62.7745 H       1  ZINC000822449555    0.1000
     36 H36       -10.8263   -1.1797   63.1333 H       1  ZINC000822449555    0.0600
     37 H37       -11.1575   -3.0086   61.5194 H       1  ZINC000822449555    0.1000
     38 H38        -9.9416   -2.2942   60.4320 H       1  ZINC000822449555    0.0600
     39 H39       -10.5545   -2.2760   58.4728 H       1  ZINC000822449555    0.1400
     40 H40       -11.7151   -3.4298   56.6064 H       1  ZINC000822449555    0.1500
     41 H41       -14.8265   -3.2602   55.7851 H       1  ZINC000822449555    0.4100
     42 H42       -15.5458   -3.9944   54.2065 H       1  ZINC000822449555    0.1600
     43 H43       -16.7621   -5.2089   52.4180 H       1  ZINC000822449555    0.1600
     44 H44       -18.7488   -8.2155   49.6845 H       1  ZINC000822449555    0.4800
     45 H45       -14.8467   -7.7754   56.1212 H       1  ZINC000822449555    0.1700
@<TRIPOS>BOND
     1     1     2    1
     2     1    28    1
     3     1    29    1
     4     1    30    1
     5     2    13   ar
     6     2     3   ar
     7     3     4   ar
     8     4     5    1
     9     4    11   ar
    10     5    10    1
    11     5     6    1
    12     6     7    1
    13     6    31    1
    14     6    32    1
    15     7     8    1
    16     7    33    1
    17     7    34    1
    18     8     9    1
    19     9    10    1
    20     9    35    1
    21     9    36    1
    22    10    37    1
    23    10    38    1
    24    11    12   ar
    25    11    39    1
    26    12    13   ar
    27    12    40    1
    28    13    14    1
    29    14    15   am
    30    14    41    1
    31    15    16    2
    32    15    17    1
    33    17    27   ar
    34    17    18   ar
    35    18    19   ar
    36    18    42    1
    37    19    20   ar
    38    19    43    1
    39    20    21    1
    40    20    26   ar
    41    21    25    1
    42    21    22    2
    43    22    23    1
    44    23    24    1
    45    23    44    1
    46    24    25    2
    47    26    27   ar
    48    27    45    1
@<TRIPOS>SUBSTRUCTURE
     1 ZINC000822449555        1 TEMP              0 ****  ****    0 ROOT


##########                                Name:    ZINC000179496896
##########                DOCK_Rotatable_Bonds:                   8
##########                         Heavy_Atoms:                  27
##########                    Molecular_Weight:             396.504
##########                DOCK_Rotatable_Bonds:                   8
##########                       Formal_Charge:          0.00999944
##########                     HBond_Acceptors:                   8
##########                        HBond_Donors:                   1
##########                         Heavy_Atoms:                  27
##########                          Grid_Score:          -30.006544
##########                     Grid_vdw_energy:          -29.742727
##########                      Grid_es_energy:           -0.263816
##########           Internal_energy_repulsive:           19.654478

@<TRIPOS>MOLECULE
ZINC000179496896
 53 55 1 0 0
SMALL
USER_CHARGES


@<TRIPOS>ATOM
      1 C1        -17.9776   -5.8677   53.1201 C.3     1  ZINC000179496896   -0.1500
      2 C2        -16.7372   -6.3971   52.3976 C.3     1  ZINC000179496896   -0.1100
      3 C3        -16.9546   -6.3164   50.8853 C.3     1  ZINC000179496896   -0.1400
      4 C4        -15.5221   -5.5516   52.7841 C.3     1  ZINC000179496896    0.1200
      5 N5        -15.2816   -5.6719   54.2242 N.pl3   1  ZINC000179496896   -0.3300
      6 N6        -15.1559   -6.8707   54.9349 N.2     1  ZINC000179496896   -0.2700
      7 C7        -14.9481   -6.5963   56.1931 C.2     1  ZINC000179496896    0.0800
      8 C8        -14.9328   -5.1908   56.3372 C.2     1  ZINC000179496896   -0.2500
      9 C9        -14.7280   -4.4417   57.5903 C.2     1  ZINC000179496896    0.5900
     10 O10       -15.5398   -4.5303   58.4914 O.2     1  ZINC000179496896   -0.5300
     11 N11       -13.6410   -3.6585   57.7373 N.am    1  ZINC000179496896   -0.7100
     12 C12       -13.4384   -2.9127   58.9819 C.3     1  ZINC000179496896    0.1300
     13 C13       -11.9550   -2.9373   59.3554 C.3     1  ZINC000179496896    0.0700
     14 H14       -11.6934   -3.9231   59.7399 H       1  ZINC000179496896    0.0900
     15 C15       -11.1117   -2.6333   58.1155 C.3     1  ZINC000179496896   -0.1900
     16 N16       -11.6926   -1.9243   60.3864 N.3     1  ZINC000179496896   -0.5300
     17 C17       -10.3980   -2.1616   61.0407 C.3     1  ZINC000179496896    0.0600
     18 C18        -9.9802   -0.8963   61.7998 C.3     1  ZINC000179496896   -0.0400
     19 C19       -11.1590   -0.4370   62.6318 C.2     1  ZINC000179496896   -0.1700
     20 C20       -12.4229   -0.8688   62.4500 C.2     1  ZINC000179496896   -0.1100
     21 C21       -13.3364   -0.3086   63.3355 C.2     1  ZINC000179496896   -0.1200
     22 C22       -12.8329    0.5553   64.2126 C.2     1  ZINC000179496896   -0.2200
     23 S23       -11.1011    0.7145   63.9562 S.3     1  ZINC000179496896    0.1000
     24 C24       -12.7854   -1.8759   61.3670 C.3     1  ZINC000179496896    0.1200
     25 C25       -15.1389   -4.6504   55.0837 C.2     1  ZINC000179496896    0.0700
     26 C26       -15.2023   -3.1835   54.7443 C.3     1  ZINC000179496896    0.3400
     27 F27       -16.0763   -2.5382   55.6256 F       1  ZINC000179496896   -0.1500
     28 F28       -13.9257   -2.6226   54.8594 F       1  ZINC000179496896   -0.2000
     29 H29       -18.8433   -6.4701   52.8446 H       1  ZINC000179496896    0.0600
     30 H30       -17.8228   -5.9253   54.1974 H       1  ZINC000179496896    0.0600
     31 H31       -18.1505   -4.8306   52.8327 H       1  ZINC000179496896    0.0600
     32 H32       -16.5644   -7.4343   52.6849 H       1  ZINC000179496896    0.0800
     33 H33       -17.1273   -5.2792   50.5979 H       1  ZINC000179496896    0.0600
     34 H34       -16.0708   -6.6936   50.3705 H       1  ZINC000179496896    0.0600
     35 H35       -17.8202   -6.9187   50.6098 H       1  ZINC000179496896    0.0700
     36 H36       -14.6463   -5.9035   52.2389 H       1  ZINC000179496896    0.1000
     37 H37       -15.7111   -4.5078   52.5332 H       1  ZINC000179496896    0.1000
     38 H38       -14.8120   -7.3170   56.9859 H       1  ZINC000179496896    0.2000
     39 H39       -12.9929   -3.5886   57.0190 H       1  ZINC000179496896    0.4100
     40 H40       -13.7613   -1.8808   58.8438 H       1  ZINC000179496896    0.0700
     41 H41       -14.0217   -3.3722   59.7798 H       1  ZINC000179496896    0.0700
     42 H42       -10.0549   -2.6508   58.3815 H       1  ZINC000179496896    0.0600
     43 H43       -11.3065   -3.3850   57.3504 H       1  ZINC000179496896    0.0700
     44 H44       -11.3733   -1.6475   57.7310 H       1  ZINC000179496896    0.0600
     45 H45       -10.4901   -2.9926   61.7402 H       1  ZINC000179496896    0.0400
     46 H46        -9.6470   -2.3994   60.2874 H       1  ZINC000179496896    0.0900
     47 H47        -9.1350   -1.1197   62.4507 H       1  ZINC000179496896    0.0800
     48 H48        -9.7038   -0.1161   61.0907 H       1  ZINC000179496896    0.0900
     49 H49       -14.3869   -0.5584   63.3125 H       1  ZINC000179496896    0.1400
     50 H50       -13.4011    1.0789   64.9672 H       1  ZINC000179496896    0.1600
     51 H51       -13.7066   -1.5665   60.8732 H       1  ZINC000179496896    0.0900
     52 H52       -12.9198   -2.8610   61.8138 H       1  ZINC000179496896    0.0500
     53 H53       -15.5615   -3.0621   53.7224 H       1  ZINC000179496896    0.1300
@<TRIPOS>BOND
     1     1     2    1
     2     1    29    1
     3     1    30    1
     4     1    31    1
     5     2     3    1
     6     2     4    1
     7     2    32    1
     8     3    33    1
     9     3    34    1
    10     3    35    1
    11     4     5    1
    12     4    36    1
    13     4    37    1
    14     5    25    1
    15     5     6    1
    16     6     7    2
    17     7     8    1
    18     7    38    1
    19     8     9    1
    20     8    25    2
    21     9    10    2
    22     9    11   am
    23    11    12    1
    24    11    39    1
    25    12    13    1
    26    12    40    1
    27    12    41    1
    28    13    14    1
    29    13    15    1
    30    13    16    1
    31    15    42    1
    32    15    43    1
    33    15    44    1
    34    16    24    1
    35    16    17    1
    36    17    18    1
    37    17    45    1
    38    17    46    1
    39    18    19    1
    40    18    47    1
    41    18    48    1
    42    19    23    1
    43    19    20    2
    44    20    21    1
    45    20    24    1
    46    21    22    2
    47    21    49    1
    48    22    23    1
    49    22    50    1
    50    24    51    1
    51    24    52    1
    52    25    26    1
    53    26    27    1
    54    26    28    1
    55    26    53    1
@<TRIPOS>SUBSTRUCTURE
     1 ZINC000179496896        1 TEMP              0 ****  ****    0 ROOT


##########                                Name:    ZINC001078110631
##########                DOCK_Rotatable_Bonds:                   7
##########                         Heavy_Atoms:                  25
##########                    Molecular_Weight:             353.369
##########                DOCK_Rotatable_Bonds:                   7
##########                       Formal_Charge:           0.0100006
##########                     HBond_Acceptors:                   8
##########                        HBond_Donors:                   2
##########                         Heavy_Atoms:                  25
##########                          Grid_Score:          -30.003746
##########                     Grid_vdw_energy:          -29.229794
##########                      Grid_es_energy:           -0.773952
##########           Internal_energy_repulsive:           10.024995

@<TRIPOS>MOLECULE
ZINC001078110631
 46 48 1 0 0
SMALL
USER_CHARGES


@<TRIPOS>ATOM
      1 O1         -9.8909   -2.1983   60.1678 O.2     1  ZINC001078110631   -0.5100
      2 C2         -9.9712   -1.0069   60.3971 C.2     1  ZINC001078110631    0.5600
      3 N3         -9.7861   -0.1154   59.4034 N.am    1  ZINC001078110631   -0.7200
      4 C4         -9.4823   -0.5817   58.0482 C.3     1  ZINC001078110631    0.1500
      5 H5         -8.6881   -1.3277   58.0743 H       1  ZINC001078110631    0.1200
      6 C6         -9.0725    0.6065   57.1517 C.3     1  ZINC001078110631    0.0300
      7 N7         -9.6648    0.2960   55.8250 N.3     1  ZINC001078110631   -0.5000
      8 C8         -9.8004    1.5118   55.0116 C.3     1  ZINC001078110631    0.0300
      9 C9        -10.0106    1.1243   53.5465 C.3     1  ZINC001078110631    0.1300
     10 N10        -8.7291    0.7280   52.9575 N.am    1  ZINC001078110631   -0.6200
     11 C11        -7.4466    1.3788   53.2504 C.3     1  ZINC001078110631    0.1000
     12 C12        -6.3627    0.3862   52.7746 C.3     1  ZINC001078110631   -0.1300
     13 C13        -7.1212   -0.4128   51.6897 C.3     1  ZINC001078110631   -0.1600
     14 C14        -8.5759   -0.2820   52.0839 C.2     1  ZINC001078110631    0.5200
     15 O15        -9.4744   -0.9818   51.6667 O.2     1  ZINC001078110631   -0.5200
     16 C16       -10.9956   -0.2812   56.1456 C.3     1  ZINC001078110631    0.0000
     17 C17       -10.7468   -1.1681   57.3873 C.3     1  ZINC001078110631    0.1000
     18 H18       -11.5936   -1.1082   58.0711 H       1  ZINC001078110631    0.0700
     19 O19       -10.5234   -2.5233   56.9926 O.3     1  ZINC001078110631   -0.5500
     20 C20       -10.2772   -0.5373   61.7622 C.ar    1  ZINC001078110631   -0.1900
     21 C21        -9.3977   -0.8119   62.8121 C.ar    1  ZINC001078110631   -0.0300
     22 C22        -9.6882   -0.3712   64.0848 C.ar    1  ZINC001078110631   -0.1700
     23 C23       -10.8516    0.3446   64.3265 C.ar    1  ZINC001078110631    0.1600
     24 F24       -11.1299    0.7734   65.5770 F       1  ZINC001078110631   -0.1200
     25 C25       -11.7292    0.6217   63.2911 C.ar    1  ZINC001078110631   -0.2000
     26 C26       -11.4470    0.1899   62.0094 C.ar    1  ZINC001078110631    0.2000
     27 F27       -12.3028    0.4603   60.9996 F       1  ZINC001078110631   -0.1000
     28 H28        -9.8542    0.8349   59.5855 H       1  ZINC001078110631    0.4000
     29 H29        -9.4832    1.5372   57.5429 H       1  ZINC001078110631    0.0500
     30 H30        -7.9869    0.6702   57.0778 H       1  ZINC001078110631    0.1000
     31 H31       -10.6562    2.0892   55.3612 H       1  ZINC001078110631    0.0400
     32 H32        -8.8954    2.1124   55.1024 H       1  ZINC001078110631    0.0800
     33 H33       -10.7107    0.2909   53.4879 H       1  ZINC001078110631    0.0900
     34 H34       -10.4138    1.9766   52.9996 H       1  ZINC001078110631    0.0800
     35 H35        -7.3658    2.3170   52.7017 H       1  ZINC001078110631    0.0700
     36 H36        -7.3503    1.5577   54.3213 H       1  ZINC001078110631    0.0800
     37 H37        -5.5111    0.9145   52.3461 H       1  ZINC001078110631    0.0900
     38 H38        -6.0461   -0.2654   53.5891 H       1  ZINC001078110631    0.0800
     39 H39        -6.9483    0.0216   50.7051 H       1  ZINC001078110631    0.1100
     40 H40        -6.8176   -1.4596   51.7046 H       1  ZINC001078110631    0.1000
     41 H41       -11.7072    0.5107   56.3793 H       1  ZINC001078110631    0.0600
     42 H42       -11.3580   -0.8858   55.3141 H       1  ZINC001078110631    0.0900
     43 H43       -11.3343   -3.0240   56.8290 H       1  ZINC001078110631    0.3800
     44 H44        -8.4914   -1.3692   62.6266 H       1  ZINC001078110631    0.1500
     45 H45        -9.0083   -0.5838   64.8965 H       1  ZINC001078110631    0.1500
     46 H46       -12.6336    1.1793   63.4853 H       1  ZINC001078110631    0.1600
@<TRIPOS>BOND
     1     1     2    2
     2     2     3   am
     3     2    20    1
     4     3     4    1
     5     3    28    1
     6     4     5    1
     7     4    17    1
     8     4     6    1
     9     6     7    1
    10     6    29    1
    11     6    30    1
    12     7     8    1
    13     7    16    1
    14     8     9    1
    15     8    31    1
    16     8    32    1
    17     9    10    1
    18     9    33    1
    19     9    34    1
    20    10    14   am
    21    10    11    1
    22    11    12    1
    23    11    35    1
    24    11    36    1
    25    12    13    1
    26    12    37    1
    27    12    38    1
    28    13    14    1
    29    13    39    1
    30    13    40    1
    31    14    15    2
    32    16    17    1
    33    16    41    1
    34    16    42    1
    35    17    18    1
    36    17    19    1
    37    19    43    1
    38    20    26   ar
    39    20    21   ar
    40    21    22   ar
    41    21    44    1
    42    22    23   ar
    43    22    45    1
    44    23    24    1
    45    23    25   ar
    46    25    26   ar
    47    25    46    1
    48    26    27    1
@<TRIPOS>SUBSTRUCTURE
     1 ZINC001078110631        1 TEMP              0 ****  ****    0 ROOT


##########                                Name:    ZINC000482187991
##########                DOCK_Rotatable_Bonds:                  11
##########                         Heavy_Atoms:                  29
##########                    Molecular_Weight:             407.414
##########                DOCK_Rotatable_Bonds:                  11
##########                       Formal_Charge:           0.0299996
##########                     HBond_Acceptors:                   8
##########                        HBond_Donors:                   1
##########                         Heavy_Atoms:                  29
##########                          Grid_Score:          -30.003296
##########                     Grid_vdw_energy:          -29.615034
##########                      Grid_es_energy:           -0.388262
##########           Internal_energy_repulsive:           13.186976

@<TRIPOS>MOLECULE
ZINC000482187991
 52 53 1 0 0
SMALL
USER_CHARGES


@<TRIPOS>ATOM
      1 C1        -15.6565   -1.7209   63.1378 C.3     1  ZINC000482187991    0.0200
      2 O2        -15.6849   -1.1409   61.8320 O.3     1  ZINC000482187991   -0.3000
      3 C3        -14.8846   -1.7053   60.8883 C.ar    1  ZINC000482187991    0.1400
      4 C4        -13.5124   -1.6818   61.0438 C.ar    1  ZINC000482187991   -0.1700
      5 C5        -12.6894   -2.2634   60.0719 C.ar    1  ZINC000482187991   -0.1000
      6 C6        -11.2300   -2.2408   60.2338 C.2     1  ZINC000482187991    0.4000
      7 O7        -10.6753   -3.1209   60.8576 O.2     1  ZINC000482187991   -0.4500
      8 C8        -10.4214   -1.1243   59.6249 C.3     1  ZINC000482187991   -0.1500
      9 C9         -9.4220   -1.7059   58.6231 C.3     1  ZINC000482187991   -0.1300
     10 C10       -10.0554   -1.7625   57.2568 C.2     1  ZINC000482187991    0.5200
     11 O11       -10.5043   -2.8090   56.8394 O.2     1  ZINC000482187991   -0.5200
     12 N12       -10.1227   -0.6503   56.4986 N.am    1  ZINC000482187991   -0.7200
     13 C13       -10.7368   -0.7057   55.1697 C.3     1  ZINC000482187991    0.1500
     14 H14       -11.0344   -1.7309   54.9495 H       1  ZINC000482187991    0.1300
     15 C15        -9.7434   -0.2383   54.1374 C.ar    1  ZINC000482187991   -0.1100
     16 C16        -9.6080   -0.9272   52.9466 C.ar    1  ZINC000482187991   -0.1000
     17 C17        -8.6967   -0.4985   51.9998 C.ar    1  ZINC000482187991   -0.1200
     18 C18        -7.9209    0.6194   52.2436 C.ar    1  ZINC000482187991   -0.1100
     19 C19        -8.0568    1.3088   53.4340 C.ar    1  ZINC000482187991   -0.1200
     20 C20        -8.9712    0.8826   54.3791 C.ar    1  ZINC000482187991   -0.1000
     21 C21       -11.9690    0.2008   55.1390 C.3     1  ZINC000482187991    0.2500
     22 F22       -12.8263   -0.1419   56.1901 F       1  ZINC000482187991   -0.1900
     23 F23       -11.5703    1.5345   55.2783 F       1  ZINC000482187991   -0.2000
     24 C24       -13.2612   -2.8671   58.9454 C.ar    1  ZINC000482187991   -0.1900
     25 C25       -14.6343   -2.8867   58.7968 C.ar    1  ZINC000482187991    0.1400
     26 O26       -15.1907   -3.4733   57.7032 O.3     1  ZINC000482187991   -0.3000
     27 C27       -14.8147   -4.8245   57.4299 C.3     1  ZINC000482187991    0.0200
     28 C28       -15.4502   -2.3116   59.7686 C.ar    1  ZINC000482187991    0.0600
     29 O29       -16.8002   -2.3332   59.6192 O.3     1  ZINC000482187991   -0.3100
     30 C30       -17.4848   -3.5012   60.0765 C.3     1  ZINC000482187991    0.0400
     31 H31       -16.3384   -1.1774   63.7917 H       1  ZINC000482187991    0.1100
     32 H32       -15.9647   -2.7648   63.0785 H       1  ZINC000482187991    0.0600
     33 H33       -14.6447   -1.6631   63.5391 H       1  ZINC000482187991    0.0600
     34 H34       -13.0749   -1.2149   61.9138 H       1  ZINC000482187991    0.1500
     35 H35       -11.0879   -0.4307   59.1121 H       1  ZINC000482187991    0.1100
     36 H36        -9.8821   -0.5957   60.4109 H       1  ZINC000482187991    0.1100
     37 H37        -8.5347   -1.0738   58.5863 H       1  ZINC000482187991    0.1000
     38 H38        -9.1390   -2.7115   58.9343 H       1  ZINC000482187991    0.1000
     39 H39        -9.7647    0.1870   56.8330 H       1  ZINC000482187991    0.4100
     40 H40       -10.2142   -1.8006   52.7562 H       1  ZINC000482187991    0.1200
     41 H41        -8.5905   -1.0371   51.0697 H       1  ZINC000482187991    0.1300
     42 H42        -7.2084    0.9540   51.5041 H       1  ZINC000482187991    0.1300
     43 H43        -7.4504    2.1819   53.6246 H       1  ZINC000482187991    0.1300
     44 H44        -9.0774    1.4213   55.3091 H       1  ZINC000482187991    0.1300
     45 H45       -12.4894    0.0745   54.1896 H       1  ZINC000482187991    0.1200
     46 H46       -12.6295   -3.3164   58.1936 H       1  ZINC000482187991    0.1500
     47 H47       -13.7371   -4.8775   57.2743 H       1  ZINC000482187991    0.0600
     48 H48       -15.0914   -5.4565   58.2738 H       1  ZINC000482187991    0.0600
     49 H49       -15.3287   -5.1704   56.5330 H       1  ZINC000482187991    0.1100
     50 H50       -17.1163   -4.3733   59.5363 H       1  ZINC000482187991    0.0500
     51 H51       -17.3060   -3.6328   61.1438 H       1  ZINC000482187991    0.0500
     52 H52       -18.5542   -3.3886   59.8985 H       1  ZINC000482187991    0.1000
@<TRIPOS>BOND
     1     1     2    1
     2     1    31    1
     3     1    32    1
     4     1    33    1
     5     2     3    1
     6     3    28   ar
     7     3     4   ar
     8     4     5   ar
     9     4    34    1
    10     5     6    1
    11     5    24   ar
    12     6     7    2
    13     6     8    1
    14     8     9    1
    15     8    35    1
    16     8    36    1
    17     9    10    1
    18     9    37    1
    19     9    38    1
    20    10    11    2
    21    10    12   am
    22    12    13    1
    23    12    39    1
    24    13    14    1
    25    13    15    1
    26    13    21    1
    27    15    20   ar
    28    15    16   ar
    29    16    17   ar
    30    16    40    1
    31    17    18   ar
    32    17    41    1
    33    18    19   ar
    34    18    42    1
    35    19    20   ar
    36    19    43    1
    37    20    44    1
    38    21    22    1
    39    21    23    1
    40    21    45    1
    41    24    25   ar
    42    24    46    1
    43    25    26    1
    44    25    28   ar
    45    26    27    1
    46    27    47    1
    47    27    48    1
    48    27    49    1
    49    28    29    1
    50    29    30    1
    51    30    50    1
    52    30    51    1
    53    30    52    1
@<TRIPOS>SUBSTRUCTURE
     1 ZINC000482187991        1 TEMP              0 ****  ****    0 ROOT


##########                                Name:    ZINC000989658617
##########                DOCK_Rotatable_Bonds:                   6
##########                         Heavy_Atoms:                  24
##########                    Molecular_Weight:             334.418
##########                DOCK_Rotatable_Bonds:                   6
##########                       Formal_Charge:          -0.0100001
##########                     HBond_Acceptors:                   7
##########                        HBond_Donors:                   2
##########                         Heavy_Atoms:                  24
##########                          Grid_Score:          -29.992729
##########                     Grid_vdw_energy:          -29.108643
##########                      Grid_es_energy:           -0.884087
##########           Internal_energy_repulsive:            9.722799

@<TRIPOS>MOLECULE
ZINC000989658617
 50 52 1 0 0
SMALL
USER_CHARGES


@<TRIPOS>ATOM
      1 C1        -16.8776   -8.2282   52.9536 C.3     1  ZINC000989658617    0.0300
      2 O2        -16.4661   -7.7896   54.2500 O.3     1  ZINC000989658617   -0.3700
      3 C3        -15.3943   -6.8446   54.2308 C.3     1  ZINC000989658617    0.0500
      4 C4        -15.0451   -6.4525   55.6434 C.2     1  ZINC000989658617    0.5300
      5 O5        -15.2539   -7.2235   56.5560 O.2     1  ZINC000989658617   -0.5100
      6 N6        -14.5006   -5.2451   55.8925 N.am    1  ZINC000989658617   -0.6200
      7 C7        -14.1946   -4.2157   54.8825 C.3     1  ZINC000989658617    0.1000
      8 C8        -13.0775   -3.3532   55.5211 C.3     1  ZINC000989658617   -0.1500
      9 C9        -13.5152   -3.3290   57.0095 C.3     1  ZINC000989658617    0.1400
     10 H10       -14.2694   -2.5601   57.1773 H       1  ZINC000989658617    0.1100
     11 N11       -12.3602   -3.1193   57.8860 N.am    1  ZINC000989658617   -0.7100
     12 C12       -12.5137   -2.4772   59.0610 C.2     1  ZINC000989658617    0.6100
     13 O13       -13.6102   -2.0707   59.3929 O.2     1  ZINC000989658617   -0.5200
     14 C14       -11.3495   -2.2675   59.9456 C.2     1  ZINC000989658617   -0.0100
     15 N15       -10.1726   -2.8632   59.8567 N.2     1  ZINC000989658617   -0.2600
     16 N16        -9.3904   -2.4426   60.7901 N.pl3   1  ZINC000989658617   -0.3700
     17 C17       -10.0260   -1.5344   61.5487 C.2     1  ZINC000989658617    0.0100
     18 C18       -11.2752   -1.3916   61.0416 C.2     1  ZINC000989658617   -0.1400
     19 C19       -12.3236   -0.4692   61.5998 C.3     1  ZINC000989658617   -0.0400
     20 C20       -11.8987   -0.0584   63.0162 C.3     1  ZINC000989658617   -0.0900
     21 H21       -11.9917   -0.9135   63.6857 H       1  ZINC000989658617    0.0700
     22 C22       -12.7991    1.0758   63.5097 C.3     1  ZINC000989658617   -0.1500
     23 C23       -10.4437    0.4177   62.9957 C.3     1  ZINC000989658617   -0.1100
     24 C24        -9.5122   -0.7731   62.7436 C.3     1  ZINC000989658617   -0.0500
     25 C25       -14.1194   -4.7338   57.2172 C.3     1  ZINC000989658617    0.1300
     26 H26       -13.3766   -5.3944   57.6643 H       1  ZINC000989658617    0.0800
     27 C27       -15.3480   -4.6428   58.1245 C.3     1  ZINC000989658617   -0.1600
     28 H28       -17.2146   -7.3713   52.3702 H       1  ZINC000989658617    0.0500
     29 H29       -16.0378   -8.7045   52.4477 H       1  ZINC000989658617    0.0400
     30 H30       -17.6942   -8.9431   53.0542 H       1  ZINC000989658617    0.0900
     31 H31       -14.5235   -7.2926   53.7522 H       1  ZINC000989658617    0.0800
     32 H32       -15.7003   -5.9595   53.6731 H       1  ZINC000989658617    0.0800
     33 H33       -13.8367   -4.6802   53.9636 H       1  ZINC000989658617    0.0800
     34 H34       -15.0762   -3.6068   54.6822 H       1  ZINC000989658617    0.0800
     35 H35       -12.1035   -3.8293   55.4080 H       1  ZINC000989658617    0.0800
     36 H36       -13.0706   -2.3481   55.0995 H       1  ZINC000989658617    0.1000
     37 H37       -11.4850   -3.4427   57.6208 H       1  ZINC000989658617    0.4100
     38 H38        -8.4766   -2.7383   60.9252 H       1  ZINC000989658617    0.4500
     39 H39       -12.4070    0.4164   60.9698 H       1  ZINC000989658617    0.0800
     40 H40       -13.2832   -0.9846   61.6390 H       1  ZINC000989658617    0.0800
     41 H41       -13.8350    0.7370   63.5251 H       1  ZINC000989658617    0.0600
     42 H42       -12.4974    1.3677   64.5157 H       1  ZINC000989658617    0.0600
     43 H43       -12.7064    1.9310   62.8402 H       1  ZINC000989658617    0.0600
     44 H44       -10.3131    1.1513   62.2003 H       1  ZINC000989658617    0.0700
     45 H45       -10.1980    0.8750   63.9542 H       1  ZINC000989658617    0.0800
     46 H46        -9.5079   -1.4271   63.6155 H       1  ZINC000989658617    0.0800
     47 H47        -8.5017   -0.4140   62.5482 H       1  ZINC000989658617    0.0800
     48 H48       -16.0935   -3.9953   57.6629 H       1  ZINC000989658617    0.0600
     49 H49       -15.7692   -5.6381   58.2665 H       1  ZINC000989658617    0.0700
     50 H50       -15.0566   -4.2303   59.0905 H       1  ZINC000989658617    0.0700
@<TRIPOS>BOND
     1     1     2    1
     2     1    28    1
     3     1    29    1
     4     1    30    1
     5     2     3    1
     6     3     4    1
     7     3    31    1
     8     3    32    1
     9     4     5    2
    10     4     6   am
    11     6    25    1
    12     6     7    1
    13     7     8    1
    14     7    33    1
    15     7    34    1
    16     8     9    1
    17     8    35    1
    18     8    36    1
    19     9    10    1
    20     9    11    1
    21     9    25    1
    22    11    12   am
    23    11    37    1
    24    12    13    2
    25    12    14    1
    26    14    18    1
    27    14    15    2
    28    15    16    1
    29    16    17    1
    30    16    38    1
    31    17    24    1
    32    17    18    2
    33    18    19    1
    34    19    20    1
    35    19    39    1
    36    19    40    1
    37    20    21    1
    38    20    22    1
    39    20    23    1
    40    22    41    1
    41    22    42    1
    42    22    43    1
    43    23    24    1
    44    23    44    1
    45    23    45    1
    46    24    46    1
    47    24    47    1
    48    25    26    1
    49    25    27    1
    50    27    48    1
    51    27    49    1
    52    27    50    1
@<TRIPOS>SUBSTRUCTURE
     1 ZINC000989658617        1 TEMP              0 ****  ****    0 ROOT


##########                                Name:    ZINC000816269301
##########                DOCK_Rotatable_Bonds:                   7
##########                         Heavy_Atoms:                  25
##########                    Molecular_Weight:             358.784
##########                DOCK_Rotatable_Bonds:                   7
##########                       Formal_Charge:           0.0100002
##########                     HBond_Acceptors:                   8
##########                        HBond_Donors:                   1
##########                         Heavy_Atoms:                  25
##########                          Grid_Score:          -29.968788
##########                     Grid_vdw_energy:          -29.634706
##########                      Grid_es_energy:           -0.334082
##########           Internal_energy_repulsive:            6.025402

@<TRIPOS>MOLECULE
ZINC000816269301
 40 42 1 0 0
SMALL
USER_CHARGES


@<TRIPOS>ATOM
      1 C1        -16.8852   -6.2309   51.1800 C.3     1  ZINC000816269301    0.1000
      2 N2        -16.3228   -6.5211   52.5013 N.pl3   1  ZINC000816269301   -0.4000
      3 N3        -16.0069   -7.7861   53.0173 N.2     1  ZINC000816269301    0.0000
      4 N4        -15.5333   -7.6593   54.2065 N.2     1  ZINC000816269301   -0.2000
      5 C5        -15.4996   -6.3517   54.5577 C.ar    1  ZINC000816269301   -0.0300
      6 C6        -15.0846   -5.6848   55.7135 C.ar    1  ZINC000816269301    0.0500
      7 C7        -15.1752   -4.2994   55.7756 C.ar    1  ZINC000816269301   -0.1400
      8 C8        -14.7385   -3.5880   56.9927 C.2     1  ZINC000816269301    0.5200
      9 O9        -15.4275   -3.6161   57.9929 O.2     1  ZINC000816269301   -0.5000
     10 O10       -13.5757   -2.9075   56.9946 O.3     1  ZINC000816269301   -0.3500
     11 C11       -12.3650   -3.6704   56.7495 C.3     1  ZINC000816269301    0.0500
     12 C12       -12.0497   -4.5337   57.9727 C.3     1  ZINC000816269301    0.1200
     13 N13       -11.9217   -3.6777   59.1547 N.am    1  ZINC000816269301   -0.7200
     14 C14       -10.7108   -3.2149   59.5237 C.2     1  ZINC000816269301    0.5600
     15 O15        -9.7251   -3.5066   58.8747 O.2     1  ZINC000816269301   -0.5300
     16 C16       -10.5815   -2.3529   60.7170 C.ar    1  ZINC000816269301   -0.1300
     17 C17       -11.7225   -1.8569   61.3503 C.ar    1  ZINC000816269301   -0.0700
     18 C18       -11.5955   -1.0529   62.4635 C.ar    1  ZINC000816269301   -0.1200
     19 C19       -10.3389   -0.7373   62.9534 C.ar    1  ZINC000816269301   -0.0100
     20 Cl20      -10.1869    0.2750   64.3556 Cl      1  ZINC000816269301   -0.0600
     21 C21        -9.2032   -1.2263   62.3293 C.ar    1  ZINC000816269301   -0.1200
     22 C22        -9.3177   -2.0358   61.2189 C.ar    1  ZINC000816269301   -0.0500
     23 C23       -15.6796   -3.5745   54.6858 C.ar    1  ZINC000816269301   -0.0200
     24 C24       -16.0858   -4.2194   53.5560 C.ar    1  ZINC000816269301   -0.1300
     25 C25       -15.9974   -5.6069   53.4721 C.ar    1  ZINC000816269301    0.1100
     26 H26       -16.0758   -6.0851   50.4646 H       1  ZINC000816269301    0.0900
     27 H27       -17.5079   -7.0659   50.8588 H       1  ZINC000816269301    0.1000
     28 H28       -17.4903   -5.3259   51.2335 H       1  ZINC000816269301    0.1000
     29 H29       -14.6964   -6.2424   56.5531 H       1  ZINC000816269301    0.1600
     30 H30       -12.5092   -4.3114   55.8798 H       1  ZINC000816269301    0.0800
     31 H31       -11.5363   -2.9870   56.5638 H       1  ZINC000816269301    0.1000
     32 H32       -12.8558   -5.2507   58.1290 H       1  ZINC000816269301    0.1000
     33 H33       -11.1144   -5.0687   57.8085 H       1  ZINC000816269301    0.0900
     34 H34       -12.7084   -3.4440   59.6718 H       1  ZINC000816269301    0.4000
     35 H35       -12.7028   -2.1021   60.9690 H       1  ZINC000816269301    0.1400
     36 H36       -12.4775   -0.6684   62.9541 H       1  ZINC000816269301    0.1400
     37 H37        -8.2261   -0.9768   62.7158 H       1  ZINC000816269301    0.1400
     38 H38        -8.4315   -2.4169   60.7333 H       1  ZINC000816269301    0.1500
     39 H39       -15.7470   -2.4981   54.7426 H       1  ZINC000816269301    0.1500
     40 H40       -16.4729   -3.6528   52.7219 H       1  ZINC000816269301    0.1400
@<TRIPOS>BOND
     1     1     2    1
     2     1    26    1
     3     1    27    1
     4     1    28    1
     5     2    25    1
     6     2     3    1
     7     3     4    2
     8     4     5    1
     9     5    25   ar
    10     5     6   ar
    11     6     7   ar
    12     6    29    1
    13     7     8    1
    14     7    23   ar
    15     8     9    2
    16     8    10    1
    17    10    11    1
    18    11    12    1
    19    11    30    1
    20    11    31    1
    21    12    13    1
    22    12    32    1
    23    12    33    1
    24    13    14   am
    25    13    34    1
    26    14    15    2
    27    14    16    1
    28    16    22   ar
    29    16    17   ar
    30    17    18   ar
    31    17    35    1
    32    18    19   ar
    33    18    36    1
    34    19    20    1
    35    19    21   ar
    36    21    22   ar
    37    21    37    1
    38    22    38    1
    39    23    24   ar
    40    23    39    1
    41    24    25   ar
    42    24    40    1
@<TRIPOS>SUBSTRUCTURE
     1 ZINC000816269301        1 TEMP              0 ****  ****    0 ROOT


##########                                Name:    ZINC000469459940
##########                DOCK_Rotatable_Bonds:                   7
##########                         Heavy_Atoms:                  24
##########                    Molecular_Weight:             414.295
##########                DOCK_Rotatable_Bonds:                   7
##########                       Formal_Charge:          -0.0200002
##########                     HBond_Acceptors:                   6
##########                        HBond_Donors:                   1
##########                         Heavy_Atoms:                  24
##########                          Grid_Score:          -29.963343
##########                     Grid_vdw_energy:          -27.170053
##########                      Grid_es_energy:           -2.793289
##########           Internal_energy_repulsive:            5.790494

@<TRIPOS>MOLECULE
ZINC000469459940
 41 42 1 0 0
SMALL
USER_CHARGES


@<TRIPOS>ATOM
      1 C1         -4.3097    1.6629   65.1168 C.3     1  ZINC000469459940   -0.1600
      2 C2         -5.4793    1.9239   66.0680 C.3     1  ZINC000469459940   -0.1200
      3 C3         -6.5985    0.9190   65.7879 C.3     1  ZINC000469459940   -0.1200
      4 C4         -7.8111    1.2499   66.6602 C.3     1  ZINC000469459940   -0.6000
      5 S5         -9.0635   -0.0488   66.4725 S.o2    1  ZINC000469459940    2.4900
      6 O6         -8.4790   -1.3331   66.6393 O.2     1  ZINC000469459940   -0.9300
      7 O7        -10.2573    0.3071   67.1562 O.2     1  ZINC000469459940   -0.9300
      8 C8         -9.5053    0.0096   64.7677 C.ar    1  ZINC000469459940   -0.6400
      9 C9        -10.1301    1.1331   64.2562 C.ar    1  ZINC000469459940   -0.0300
     10 C10       -10.4790    1.1852   62.9225 C.ar    1  ZINC000469459940   -0.0800
     11 C11       -10.2000    0.1011   62.0886 C.ar    1  ZINC000469459940   -0.0900
     12 C12       -10.5705    0.1500   60.6584 C.2     1  ZINC000469459940    0.5600
     13 O13       -11.5305    0.8048   60.3014 O.2     1  ZINC000469459940   -0.5000
     14 N14        -9.8442   -0.5315   59.7505 N.am    1  ZINC000469459940   -0.6700
     15 C15       -10.1948   -0.4852   58.3971 C.ar    1  ZINC000469459940    0.1900
     16 C16       -11.1005   -1.4032   57.8817 C.ar    1  ZINC000469459940   -0.1500
     17 C17       -11.4458   -1.3564   56.5449 C.ar    1  ZINC000469459940   -0.0400
     18 C18       -10.8906   -0.3964   55.7186 C.ar    1  ZINC000469459940   -0.1500
     19 Br19      -11.3661   -0.3357   53.8894 Br      1  ZINC000469459940   -0.0200
     20 C20        -9.9863    0.5216   56.2293 C.ar    1  ZINC000469459940    0.1500
     21 F21        -9.4451    1.4585   55.4203 F       1  ZINC000469459940   -0.1200
     22 C22        -9.6422    0.4823   57.5683 C.ar    1  ZINC000469459940   -0.1500
     23 C23        -9.5690   -1.0293   62.6110 C.ar    1  ZINC000469459940   -0.1100
     24 C24        -9.2209   -1.0662   63.9453 C.ar    1  ZINC000469459940   -0.0300
     25 H25        -3.9358    0.6504   65.2699 H       1  ZINC000469459940    0.0600
     26 H26        -4.6478    1.7733   64.0864 H       1  ZINC000469459940    0.0600
     27 H27        -3.5124    2.3788   65.3162 H       1  ZINC000469459940    0.0600
     28 H28        -5.1413    1.8134   67.0983 H       1  ZINC000469459940    0.0700
     29 H29        -5.8532    2.9362   65.9147 H       1  ZINC000469459940    0.0700
     30 H30        -6.8814    0.9738   64.7367 H       1  ZINC000469459940    0.0800
     31 H31        -6.2492   -0.0875   66.0182 H       1  ZINC000469459940    0.0800
     32 H32        -7.5027    1.3091   67.7039 H       1  ZINC000469459940    0.1400
     33 H33        -8.2310    2.2070   66.3507 H       1  ZINC000469459940    0.1400
     34 H34       -10.3453    1.9712   64.9025 H       1  ZINC000469459940    0.1500
     35 H35       -10.9672    2.0624   62.5247 H       1  ZINC000469459940    0.1500
     36 H36        -9.0783   -1.0541   60.0354 H       1  ZINC000469459940    0.4200
     37 H37       -11.5344   -2.1538   58.5255 H       1  ZINC000469459940    0.1500
     38 H38       -12.1502   -2.0704   56.1445 H       1  ZINC000469459940    0.1500
     39 H39        -8.9378    1.1975   57.9667 H       1  ZINC000469459940    0.1600
     40 H40        -9.3508   -1.8715   61.9712 H       1  ZINC000469459940    0.1400
     41 H41        -8.7327   -1.9401   64.3508 H       1  ZINC000469459940    0.1500
@<TRIPOS>BOND
     1     1     2    1
     2     1    25    1
     3     1    26    1
     4     1    27    1
     5     2     3    1
     6     2    28    1
     7     2    29    1
     8     3     4    1
     9     3    30    1
    10     3    31    1
    11     4     5    1
    12     4    32    1
    13     4    33    1
    14     5     6    2
    15     5     7    2
    16     5     8    1
    17     8    24   ar
    18     8     9   ar
    19     9    10   ar
    20     9    34    1
    21    10    11   ar
    22    10    35    1
    23    11    12    1
    24    11    23   ar
    25    12    13    2
    26    12    14   am
    27    14    15    1
    28    14    36    1
    29    15    22   ar
    30    15    16   ar
    31    16    17   ar
    32    16    37    1
    33    17    18   ar
    34    17    38    1
    35    18    19    1
    36    18    20   ar
    37    20    21    1
    38    20    22   ar
    39    22    39    1
    40    23    24   ar
    41    23    40    1
    42    24    41    1
@<TRIPOS>SUBSTRUCTURE
     1 ZINC000469459940        1 TEMP              0 ****  ****    0 ROOT


##########                                Name:    ZINC000914736341
##########                DOCK_Rotatable_Bonds:                   7
##########                         Heavy_Atoms:                  27
##########                    Molecular_Weight:             384.905
##########                DOCK_Rotatable_Bonds:                   7
##########                       Formal_Charge:                0.02
##########                     HBond_Acceptors:                   5
##########                        HBond_Donors:                   1
##########                         Heavy_Atoms:                  27
##########                          Grid_Score:          -29.958454
##########                     Grid_vdw_energy:          -28.908569
##########                      Grid_es_energy:           -1.049885
##########           Internal_energy_repulsive:           20.018679

@<TRIPOS>MOLECULE
ZINC000914736341
 52 54 1 0 0
SMALL
USER_CHARGES


@<TRIPOS>ATOM
      1 C1        -11.6644    0.3965   52.7887 C.3     1  ZINC000914736341   -0.1400
      2 C2        -10.6950    1.4997   53.2180 C.3     1  ZINC000914736341   -0.0300
      3 C3        -11.1062    2.8217   52.5669 C.3     1  ZINC000914736341   -0.1400
      4 C4        -10.7327    1.6476   54.7404 C.3     1  ZINC000914736341    0.1300
      5 N5        -10.4055    0.3630   55.3641 N.am    1  ZINC000914736341   -0.7200
      6 C6        -10.2083    0.2912   56.6954 C.2     1  ZINC000914736341    0.5300
      7 O7        -10.3002    1.2901   57.3769 O.2     1  ZINC000914736341   -0.5300
      8 C8         -9.8735   -1.0306   57.3373 C.3     1  ZINC000914736341   -0.1200
      9 H9         -8.8580   -1.3375   57.0868 H       1  ZINC000914736341    0.1200
     10 C10       -10.8959   -2.1174   56.9318 C.3     1  ZINC000914736341   -0.1400
     11 C11       -11.0677   -2.9504   58.1829 C.2     1  ZINC000914736341    0.5200
     12 O12       -11.5615   -4.0576   58.2178 O.2     1  ZINC000914736341   -0.5200
     13 N13       -10.5929   -2.2851   59.2500 N.am    1  ZINC000914736341   -0.6100
     14 C14       -10.5958   -2.8081   60.6185 C.3     1  ZINC000914736341    0.1600
     15 C15       -10.6516   -1.6612   61.5945 C.ar    1  ZINC000914736341   -0.1000
     16 C16        -9.4828   -1.1406   62.1166 C.ar    1  ZINC000914736341   -0.0800
     17 C17        -9.5338   -0.0884   63.0121 C.ar    1  ZINC000914736341   -0.1100
     18 C18       -10.7537    0.4430   63.3861 C.ar    1  ZINC000914736341   -0.1000
     19 C19       -11.9235   -0.0769   62.8645 C.ar    1  ZINC000914736341   -0.1100
     20 C20       -11.8728   -1.1256   61.9638 C.ar    1  ZINC000914736341   -0.0300
     21 Cl21      -13.3415   -1.7791   61.3085 Cl      1  ZINC000914736341   -0.0600
     22 C22       -10.0701   -0.9673   58.8681 C.3     1  ZINC000914736341    0.1000
     23 C23        -9.2982    1.1384   52.7828 C.ar    1  ZINC000914736341   -0.0700
     24 C24        -9.0728   -0.0340   52.0863 C.ar    1  ZINC000914736341   -0.1200
     25 C25        -7.7915   -0.3654   51.6870 C.ar    1  ZINC000914736341   -0.1200
     26 C26        -6.7356    0.4760   51.9842 C.ar    1  ZINC000914736341   -0.1200
     27 C27        -6.9612    1.6489   52.6799 C.ar    1  ZINC000914736341   -0.1200
     28 C28        -8.2432    1.9824   53.0754 C.ar    1  ZINC000914736341   -0.1100
     29 H29       -11.6377    0.2911   51.7041 H       1  ZINC000914736341    0.0600
     30 H30       -11.3714   -0.5453   53.2526 H       1  ZINC000914736341    0.0600
     31 H31       -12.6747    0.6578   53.1036 H       1  ZINC000914736341    0.0600
     32 H32       -12.1165    3.0830   52.8817 H       1  ZINC000914736341    0.0600
     33 H33       -10.4157    3.6077   52.8728 H       1  ZINC000914736341    0.0600
     34 H34       -11.0795    2.7164   51.4823 H       1  ZINC000914736341    0.0600
     35 H35       -10.0055    2.3979   55.0507 H       1  ZINC000914736341    0.0700
     36 H36       -11.7303    1.9585   55.0506 H       1  ZINC000914736341    0.0700
     37 H37       -10.3308   -0.4358   54.8189 H       1  ZINC000914736341    0.4000
     38 H38       -11.8433   -1.6616   56.6440 H       1  ZINC000914736341    0.1100
     39 H39       -10.5022   -2.7271   56.1185 H       1  ZINC000914736341    0.1100
     40 H40       -11.4661   -3.4489   60.7607 H       1  ZINC000914736341    0.1000
     41 H41        -9.6874   -3.3860   60.7885 H       1  ZINC000914736341    0.1000
     42 H42        -8.5294   -1.5558   61.8253 H       1  ZINC000914736341    0.1400
     43 H43        -8.6201    0.3182   63.4197 H       1  ZINC000914736341    0.1300
     44 H44       -10.7930    1.2644   64.0862 H       1  ZINC000914736341    0.1300
     45 H45       -12.8767    0.3384   63.1568 H       1  ZINC000914736341    0.1400
     46 H46        -9.1177   -0.7811   59.3644 H       1  ZINC000914736341    0.1000
     47 H47       -10.7882   -0.1882   59.1238 H       1  ZINC000914736341    0.0900
     48 H48        -9.8977   -0.6913   51.8541 H       1  ZINC000914736341    0.1300
     49 H49        -7.6153   -1.2818   51.1434 H       1  ZINC000914736341    0.1200
     50 H50        -5.7344    0.2167   51.6729 H       1  ZINC000914736341    0.1200
     51 H51        -6.1363    2.3061   52.9123 H       1  ZINC000914736341    0.1200
     52 H52        -8.4193    2.8988   53.6190 H       1  ZINC000914736341    0.1200
@<TRIPOS>BOND
     1     1     2    1
     2     1    29    1
     3     1    30    1
     4     1    31    1
     5     2     3    1
     6     2     4    1
     7     2    23    1
     8     3    32    1
     9     3    33    1
    10     3    34    1
    11     4     5    1
    12     4    35    1
    13     4    36    1
    14     5     6   am
    15     5    37    1
    16     6     7    2
    17     6     8    1
    18     8     9    1
    19     8    22    1
    20     8    10    1
    21    10    11    1
    22    10    38    1
    23    10    39    1
    24    11    12    2
    25    11    13   am
    26    13    14    1
    27    13    22    1
    28    14    15    1
    29    14    40    1
    30    14    41    1
    31    15    20   ar
    32    15    16   ar
    33    16    17   ar
    34    16    42    1
    35    17    18   ar
    36    17    43    1
    37    18    19   ar
    38    18    44    1
    39    19    20   ar
    40    19    45    1
    41    20    21    1
    42    22    46    1
    43    22    47    1
    44    23    28   ar
    45    23    24   ar
    46    24    25   ar
    47    24    48    1
    48    25    26   ar
    49    25    49    1
    50    26    27   ar
    51    26    50    1
    52    27    28   ar
    53    27    51    1
    54    28    52    1
@<TRIPOS>SUBSTRUCTURE
     1 ZINC000914736341        1 TEMP              0 ****  ****    0 ROOT


##########                                Name:    ZINC000006915700
##########                DOCK_Rotatable_Bonds:                   5
##########                         Heavy_Atoms:                  26
##########                    Molecular_Weight:             369.447
##########                DOCK_Rotatable_Bonds:                   5
##########                       Formal_Charge:        -1.04308e-07
##########                     HBond_Acceptors:                   8
##########                        HBond_Donors:                   1
##########                         Heavy_Atoms:                  26
##########                          Grid_Score:          -29.947870
##########                     Grid_vdw_energy:          -28.484407
##########                      Grid_es_energy:           -1.463463
##########           Internal_energy_repulsive:            5.009080

@<TRIPOS>MOLECULE
ZINC000006915700
 45 48 1 0 0
SMALL
USER_CHARGES


@<TRIPOS>ATOM
      1 C1         -8.6104    2.8177   53.5994 C.3     1  <0>        -0.1200
      2 C2         -9.2822    1.6043   54.1889 C.ar    1  <0>        -0.0500
      3 C3        -10.1086    0.8234   53.4007 C.ar    1  <0>        -0.1300
      4 C4        -10.7262   -0.2890   53.9346 C.ar    1  <0>        -0.0600
      5 C5        -10.5159   -0.6254   55.2720 C.ar    1  <0>        -0.0700
      6 C6        -11.1754   -1.8184   55.8510 C.2     1  <0>         0.4400
      7 N7        -12.2829   -2.2871   55.2910 N.2     1  <0>        -0.5200
      8 C8        -12.8888   -3.3631   55.8022 C.2     1  <0>         0.3600
      9 C9        -14.0306   -4.0691   55.4458 C.2     1  <0>        -0.3200
     10 C10       -14.1814   -5.1193   56.3528 C.2     1  <0>         0.5500
     11 O11       -15.0784   -5.9465   56.3436 O.2     1  <0>        -0.5200
     12 N12       -13.1687   -5.0656   57.2398 N.am    1  <0>        -0.5000
     13 N13       -12.3519   -3.9783   56.9142 N.pl3   1  <0>        -0.3300
     14 C14       -11.2112   -3.4717   57.4671 C.2     1  <0>         0.3900
     15 S15       -10.4987   -4.2329   58.8875 S.3     1  <0>         0.1200
     16 C16       -10.0938   -2.7624   59.8622 C.3     1  <0>        -0.1500
     17 C17       -11.3312   -2.2720   60.5690 C.2     1  <0>         0.5500
     18 O18       -12.3687   -2.8935   60.4771 O.2     1  <0>        -0.5200
     19 N19       -11.2849   -1.1428   61.3032 N.am    1  <0>        -0.6100
     20 C20       -10.1003   -0.2934   61.4951 C.3     1  <0>         0.0900
     21 C21       -10.5138    0.8660   62.4261 C.3     1  <0>        -0.1300
     22 C22       -11.7549    0.2953   63.1617 C.3     1  <0>        -0.1400
     23 C23       -12.4154   -0.5513   62.0420 C.3     1  <0>         0.1000
     24 N24       -10.6419   -2.4068   56.9243 N.2     1  <0>        -0.5600
     25 C25        -9.6815    0.1660   56.0614 C.ar    1  <0>        -0.0500
     26 C26        -9.0655    1.2729   55.5146 C.ar    1  <0>        -0.1300
     27 H27        -7.6453    2.5314   53.1813 H       1  <0>         0.0800
     28 H28        -9.2384    3.2341   52.8118 H       1  <0>         0.0700
     29 H29        -8.4614    3.5651   54.3787 H       1  <0>         0.0700
     30 H30       -10.2709    1.0851   52.3657 H       1  <0>         0.1300
     31 H31       -11.3714   -0.8977   53.3185 H       1  <0>         0.1300
     32 H32       -14.6847   -3.8454   54.6160 H       1  <0>         0.1800
     33 H33       -13.0294   -5.6779   57.9792 H       1  <0>         0.4400
     34 H34        -9.3302   -3.0134   60.5984 H       1  <0>         0.1400
     35 H35        -9.7188   -1.9806   59.2017 H       1  <0>         0.1400
     36 H36        -9.3001   -0.8719   61.9564 H       1  <0>         0.0800
     37 H37        -9.7686    0.1024   60.5351 H       1  <0>         0.0800
     38 H38        -9.7172    1.0947   63.1342 H       1  <0>         0.0900
     39 H39       -10.7814    1.7494   61.8464 H       1  <0>         0.0800
     40 H40       -11.4570   -0.3292   64.0040 H       1  <0>         0.0800
     41 H41       -12.4190    1.0961   63.4868 H       1  <0>         0.0900
     42 H42       -13.0119    0.0844   61.3877 H       1  <0>         0.0800
     43 H43       -13.0337   -1.3373   62.4754 H       1  <0>         0.0800
     44 H44        -9.5149   -0.0894   57.0975 H       1  <0>         0.1400
     45 H45        -8.4190    1.8862   56.1247 H       1  <0>         0.1300
@<TRIPOS>BOND
     1     1     2    1
     2     1    27    1
     3     1    28    1
     4     1    29    1
     5     2    26   ar
     6     2     3   ar
     7     3     4   ar
     8     3    30    1
     9     4     5   ar
    10     4    31    1
    11     5     6    1
    12     5    25   ar
    13     6    24    1
    14     6     7    2
    15     7     8    1
    16     8    13    1
    17     8     9    2
    18     9    10    1
    19     9    32    1
    20    10    11    2
    21    10    12   am
    22    12    13    1
    23    12    33    1
    24    13    14    1
    25    14    15    1
    26    14    24    2
    27    15    16    1
    28    16    17    1
    29    16    34    1
    30    16    35    1
    31    17    18    2
    32    17    19   am
    33    19    23    1
    34    19    20    1
    35    20    21    1
    36    20    36    1
    37    20    37    1
    38    21    22    1
    39    21    38    1
    40    21    39    1
    41    22    23    1
    42    22    40    1
    43    22    41    1
    44    23    42    1
    45    23    43    1
    46    25    26   ar
    47    25    44    1
    48    26    45    1
@<TRIPOS>SUBSTRUCTURE
     1 <0>         1 TEMP              0 ****  ****    0 ROOT


##########                                Name:    ZINC000668548901
##########                DOCK_Rotatable_Bonds:                   9
##########                         Heavy_Atoms:                  26
##########                    Molecular_Weight:             374.464
##########                DOCK_Rotatable_Bonds:                   9
##########                       Formal_Charge:         3.53903e-07
##########                     HBond_Acceptors:                   8
##########                        HBond_Donors:                   3
##########                         Heavy_Atoms:                  26
##########                          Grid_Score:          -29.946064
##########                     Grid_vdw_energy:          -29.691311
##########                      Grid_es_energy:           -0.254753
##########           Internal_energy_repulsive:           29.945879

@<TRIPOS>MOLECULE
ZINC000668548901
 48 50 1 0 0
SMALL
USER_CHARGES


@<TRIPOS>ATOM
      1 O1        -10.6394   -1.2027   54.4414 O.2     1  ZINC000668548901   -0.5700
      2 C2        -11.4871   -0.3949   54.7686 C.2     1  ZINC000668548901    0.7100
      3 N3        -12.4512   -0.7465   55.6424 N.am    1  ZINC000668548901   -0.6800
      4 C4        -12.4797   -2.0394   56.1672 C.ar    1  ZINC000668548901    0.2200
      5 C5        -13.4923   -2.9326   55.8136 C.ar    1  ZINC000668548901   -0.1700
      6 C6        -13.4889   -4.2018   56.3516 C.ar    1  ZINC000668548901    0.1200
      7 N7        -12.5445   -4.5795   57.1929 N.ar    1  ZINC000668548901   -0.4300
      8 C8        -11.5648   -3.7633   57.5554 C.ar    1  ZINC000668548901    0.1100
      9 S9        -10.3324   -4.3262   58.6819 S.3     1  ZINC000668548901    0.0900
     10 C10       -10.3741   -3.1092   59.9556 C.ar    1  ZINC000668548901    0.0900
     11 C11       -11.5719   -2.8341   60.6072 C.ar    1  ZINC000668548901   -0.1500
     12 C12       -11.5901   -1.8766   61.6055 C.ar    1  ZINC000668548901   -0.0700
     13 C13       -10.4053   -1.2241   61.9197 C.ar    1  ZINC000668548901   -0.1700
     14 C14        -9.2522   -1.5472   61.2320 C.ar    1  ZINC000668548901    0.1000
     15 N15        -9.2633   -2.4685   60.2878 N.ar    1  ZINC000668548901   -0.4200
     16 C16       -11.4965   -2.4714   57.0513 C.ar    1  ZINC000668548901   -0.1800
     17 N17       -11.4596    0.8536   54.2618 N.am    1  ZINC000668548901   -0.7200
     18 C18       -10.4117    1.2356   53.3121 C.3     1  ZINC000668548901    0.1700
     19 H19       -10.6127    2.2377   52.9329 H       1  ZINC000668548901    0.1000
     20 C20       -10.3927    0.2438   52.1473 C.3     1  ZINC000668548901    0.0600
     21 O21        -9.1310   -0.4262   52.1127 O.3     1  ZINC000668548901   -0.5700
     22 C22        -9.0539    1.2202   54.0174 C.3     1  ZINC000668548901   -0.1300
     23 H23        -8.6913    0.1946   54.0867 H       1  ZINC000668548901    0.1000
     24 C24        -9.2013    1.8073   55.4244 C.3     1  ZINC000668548901   -0.1200
     25 C25        -7.8232    1.8584   56.0912 C.3     1  ZINC000668548901   -0.1600
     26 C26        -6.8716    2.6786   55.2161 C.3     1  ZINC000668548901    0.0600
     27 O27        -6.8042    2.0963   53.9128 O.3     1  ZINC000668548901   -0.3800
     28 C28        -8.0545    2.0636   53.2215 C.3     1  ZINC000668548901    0.0700
     29 H29       -13.1252   -0.1009   55.9066 H       1  ZINC000668548901    0.4100
     30 H30       -14.2698   -2.6327   55.1265 H       1  ZINC000668548901    0.1500
     31 H31       -14.2702   -4.8967   56.0811 H       1  ZINC000668548901    0.1600
     32 H32       -12.4754   -3.3604   60.3373 H       1  ZINC000668548901    0.1400
     33 H33       -12.5053   -1.6415   62.1286 H       1  ZINC000668548901    0.1400
     34 H34       -10.3859   -0.4713   62.6938 H       1  ZINC000668548901    0.1400
     35 H35        -8.3286   -1.0420   61.4729 H       1  ZINC000668548901    0.1600
     36 H36       -10.6972   -1.8086   57.3483 H       1  ZINC000668548901    0.1400
     37 H37       -12.1336    1.4992   54.5260 H       1  ZINC000668548901    0.4000
     38 H38       -11.1894   -0.4882   52.2804 H       1  ZINC000668548901    0.0500
     39 H39       -10.5450    0.7803   51.2108 H       1  ZINC000668548901    0.0600
     40 H40        -8.9144   -0.8993   52.9278 H       1  ZINC000668548901    0.3800
     41 H41        -9.6119    2.8149   55.3580 H       1  ZINC000668548901    0.0700
     42 H42        -9.8685    1.1785   56.0139 H       1  ZINC000668548901    0.0700
     43 H43        -7.9102    2.3261   57.0720 H       1  ZINC000668548901    0.0800
     44 H44        -7.4346    0.8463   56.2025 H       1  ZINC000668548901    0.0700
     45 H45        -7.2398    3.7016   55.1386 H       1  ZINC000668548901    0.0500
     46 H46        -5.8781    2.6826   55.6644 H       1  ZINC000668548901    0.1000
     47 H47        -7.9122    1.6255   52.2336 H       1  ZINC000668548901    0.1000
     48 H48        -8.4389    3.0782   53.1175 H       1  ZINC000668548901    0.0500
@<TRIPOS>BOND
     1     1     2    2
     2     2     3   am
     3     2    17   am
     4     3     4    1
     5     3    29    1
     6     4    16   ar
     7     4     5   ar
     8     5     6   ar
     9     5    30    1
    10     6     7   ar
    11     6    31    1
    12     7     8   ar
    13     8     9    1
    14     8    16   ar
    15     9    10    1
    16    10    15   ar
    17    10    11   ar
    18    11    12   ar
    19    11    32    1
    20    12    13   ar
    21    12    33    1
    22    13    14   ar
    23    13    34    1
    24    14    15   ar
    25    14    35    1
    26    16    36    1
    27    17    18    1
    28    17    37    1
    29    18    19    1
    30    18    20    1
    31    18    22    1
    32    20    21    1
    33    20    38    1
    34    20    39    1
    35    21    40    1
    36    22    23    1
    37    22    28    1
    38    22    24    1
    39    24    25    1
    40    24    41    1
    41    24    42    1
    42    25    26    1
    43    25    43    1
    44    25    44    1
    45    26    27    1
    46    26    45    1
    47    26    46    1
    48    27    28    1
    49    28    47    1
    50    28    48    1
@<TRIPOS>SUBSTRUCTURE
     1 ZINC000668548901        1 TEMP              0 ****  ****    0 ROOT


##########                                Name:    ZINC000440379747
##########                DOCK_Rotatable_Bonds:                   8
##########                         Heavy_Atoms:                  27
##########                    Molecular_Weight:             394.452
##########                DOCK_Rotatable_Bonds:                   8
##########                       Formal_Charge:           0.0199995
##########                     HBond_Acceptors:                  10
##########                        HBond_Donors:                   3
##########                         Heavy_Atoms:                  27
##########                          Grid_Score:          -29.907866
##########                     Grid_vdw_energy:          -29.984022
##########                      Grid_es_energy:            0.076157
##########           Internal_energy_repulsive:           23.791773

@<TRIPOS>MOLECULE
ZINC000440379747
 49 51 1 0 0
SMALL
USER_CHARGES


@<TRIPOS>ATOM
      1 C1        -17.2320   -8.1375   51.4767 C.3     1  ZINC000440379747   -0.1800
      2 C2        -16.4913   -7.6981   52.7134 C.2     1  ZINC000440379747    0.5200
      3 O3        -15.7497   -8.4708   53.2827 O.2     1  ZINC000440379747   -0.5200
      4 N4        -16.6532   -6.4467   53.1869 N.am    1  ZINC000440379747   -0.5500
      5 C5        -17.5186   -5.4272   52.5880 C.3     1  ZINC000440379747    0.1100
      6 C6        -17.3619   -4.1877   53.4838 C.3     1  ZINC000440379747   -0.0900
      7 C7        -16.3867   -4.6143   54.5579 C.ar    1  ZINC000440379747   -0.1100
      8 C8        -15.8693   -3.9231   55.6352 C.ar    1  ZINC000440379747   -0.0700
      9 C9        -14.9730   -4.5442   56.4959 C.ar    1  ZINC000440379747    0.1200
     10 N10       -14.4483   -3.8458   57.5877 N.am    1  ZINC000440379747   -0.6400
     11 C11       -13.1694   -3.4211   57.5644 C.2     1  ZINC000440379747    0.5100
     12 O12       -12.4731   -3.6449   56.5957 O.2     1  ZINC000440379747   -0.4900
     13 C13       -12.6090   -2.6752   58.7305 C.2     1  ZINC000440379747    0.5200
     14 O14       -13.1179   -2.7908   59.8262 O.2     1  ZINC000440379747   -0.5100
     15 N15       -11.5381   -1.8735   58.5661 N.am    1  ZINC000440379747   -0.5800
     16 C16       -10.8250   -1.6421   57.2967 C.3     1  ZINC000440379747    0.1000
     17 C17       -10.1431   -0.2621   57.4709 C.3     1  ZINC000440379747   -0.1300
     18 C18        -9.7292   -0.3056   58.9656 C.3     1  ZINC000440379747   -0.1600
     19 C19       -10.8916   -1.0802   59.6216 C.3     1  ZINC000440379747    0.1500
     20 H20       -11.6054   -0.3800   60.0556 H       1  ZINC000440379747    0.1000
     21 C21       -10.3492   -2.0106   60.7083 C.3     1  ZINC000440379747   -0.6500
     22 S22        -9.9620   -1.0442   62.1938 S.o2    1  ZINC000440379747    2.6200
     23 N23       -11.4186   -0.4162   62.6693 N.am    1  ZINC000440379747   -1.2500
     24 O24        -9.5844   -1.9017   63.2621 O.2     1  ZINC000440379747   -0.9500
     25 O25        -9.1821    0.0952   61.8581 O.2     1  ZINC000440379747   -0.9500
     26 C26       -14.6009   -5.8629   56.2667 C.ar    1  ZINC000440379747   -0.1000
     27 C27       -15.1186   -6.5508   55.1910 C.ar    1  ZINC000440379747   -0.1400
     28 C28       -16.0240   -5.9323   54.3265 C.ar    1  ZINC000440379747    0.1400
     29 H29       -16.9766   -9.1722   51.2486 H       1  ZINC000440379747    0.1000
     30 H30       -18.3054   -8.0575   51.6484 H       1  ZINC000440379747    0.1000
     31 H31       -16.9497   -7.5003   50.6386 H       1  ZINC000440379747    0.1000
     32 H32       -17.1920   -5.2034   51.5724 H       1  ZINC000440379747    0.0900
     33 H33       -18.5551   -5.7643   52.5870 H       1  ZINC000440379747    0.0900
     34 H34       -16.9558   -3.3538   52.9111 H       1  ZINC000440379747    0.0900
     35 H35       -18.3199   -3.9152   53.9265 H       1  ZINC000440379747    0.1000
     36 H36       -16.1614   -2.8980   55.8089 H       1  ZINC000440379747    0.1400
     37 H37       -15.0047   -3.6670   58.3619 H       1  ZINC000440379747    0.4200
     38 H38       -10.0762   -2.4176   57.1354 H       1  ZINC000440379747    0.0800
     39 H39       -11.5294   -1.6150   56.4653 H       1  ZINC000440379747    0.1000
     40 H40        -9.2689   -0.1740   56.8258 H       1  ZINC000440379747    0.1000
     41 H41       -10.8478    0.5483   57.2840 H       1  ZINC000440379747    0.0800
     42 H42        -8.7870   -0.8392   59.0895 H       1  ZINC000440379747    0.1000
     43 H43        -9.6601    0.7019   59.3761 H       1  ZINC000440379747    0.1000
     44 H44       -11.0995   -2.7634   60.9498 H       1  ZINC000440379747    0.1500
     45 H45        -9.4449   -2.5013   60.3482 H       1  ZINC000440379747    0.1400
     46 H46       -12.1511   -1.0096   62.8985 H       1  ZINC000440379747    0.4100
     47 H47       -11.5395    0.5449   62.7187 H       1  ZINC000440379747    0.4200
     48 H48       -13.9042   -6.3498   56.9329 H       1  ZINC000440379747    0.1400
     49 H49       -14.8253   -7.5757   55.0177 H       1  ZINC000440379747    0.1500
@<TRIPOS>BOND
     1     1     2    1
     2     1    29    1
     3     1    30    1
     4     1    31    1
     5     2     3    2
     6     2     4   am
     7     4    28    1
     8     4     5    1
     9     5     6    1
    10     5    32    1
    11     5    33    1
    12     6     7    1
    13     6    34    1
    14     6    35    1
    15     7    28   ar
    16     7     8   ar
    17     8     9   ar
    18     8    36    1
    19     9    10    1
    20     9    26   ar
    21    10    11   am
    22    10    37    1
    23    11    12    2
    24    11    13    1
    25    13    14    2
    26    13    15   am
    27    15    19    1
    28    15    16    1
    29    16    17    1
    30    16    38    1
    31    16    39    1
    32    17    18    1
    33    17    40    1
    34    17    41    1
    35    18    19    1
    36    18    42    1
    37    18    43    1
    38    19    20    1
    39    19    21    1
    40    21    22    1
    41    21    44    1
    42    21    45    1
    43    22    23   am
    44    22    24    2
    45    22    25    2
    46    23    46    1
    47    23    47    1
    48    26    27   ar
    49    26    48    1
    50    27    28   ar
    51    27    49    1
@<TRIPOS>SUBSTRUCTURE
     1 ZINC000440379747        1 TEMP              0 ****  ****    0 ROOT


##########                                Name:    ZINC000643274279
##########                DOCK_Rotatable_Bonds:                   6
##########                         Heavy_Atoms:                  29
##########                    Molecular_Weight:             392.454
##########                DOCK_Rotatable_Bonds:                   6
##########                       Formal_Charge:         -0.00999939
##########                     HBond_Acceptors:                   6
##########                        HBond_Donors:                   2
##########                         Heavy_Atoms:                  29
##########                          Grid_Score:          -29.897007
##########                     Grid_vdw_energy:          -29.622473
##########                      Grid_es_energy:           -0.274535
##########           Internal_energy_repulsive:           11.660976

@<TRIPOS>MOLECULE
ZINC000643274279
 53 56 1 0 0
SMALL
USER_CHARGES


@<TRIPOS>ATOM
      1 O1        -10.9057    0.1598   51.7154 O.2     1  ZINC000643274279   -0.4900
      2 C2        -10.6896    1.3249   51.4521 C.2     1  ZINC000643274279    0.5100
      3 N3        -11.5649    2.0191   50.6983 N.am    1  ZINC000643274279   -0.6400
      4 C4        -12.7186    1.3958   50.2148 C.ar    1  ZINC000643274279    0.1300
      5 C5        -13.7933    1.1682   51.0671 C.ar    1  ZINC000643274279   -0.1000
      6 C6        -14.9356    0.5410   50.6002 C.ar    1  ZINC000643274279   -0.1000
      7 C7        -15.0080    0.1383   49.2850 C.ar    1  ZINC000643274279   -0.0600
      8 C8        -16.2304   -0.6125   48.7866 C.3     1  ZINC000643274279   -0.0900
      9 C9        -16.9875    0.2626   47.7942 C.3     1  ZINC000643274279   -0.1200
     10 C10       -16.4566    0.0883   46.3793 C.3     1  ZINC000643274279   -0.1100
     11 C11       -15.0950    0.6950   46.1521 C.3     1  ZINC000643274279   -0.1600
     12 C12       -14.0590   -0.0167   47.0003 C.2     1  ZINC000643274279    0.4100
     13 O13       -13.3495   -0.8815   46.5325 O.2     1  ZINC000643274279   -0.4400
     14 C14       -13.9463    0.3823   48.4141 C.ar    1  ZINC000643274279   -0.1300
     15 C15       -12.7914    1.0108   48.8839 C.ar    1  ZINC000643274279   -0.1000
     16 C16        -9.4566    1.9909   51.9689 C.2     1  ZINC000643274279    0.5200
     17 O17        -9.4708    3.1763   52.2288 O.2     1  ZINC000643274279   -0.5000
     18 N18        -8.3284    1.2755   52.1466 N.am    1  ZINC000643274279   -0.5800
     19 C19        -8.1719   -0.1646   51.8726 C.3     1  ZINC000643274279    0.0900
     20 C20        -6.6546   -0.3591   51.6283 C.3     1  ZINC000643274279   -0.1400
     21 C21        -6.0443    0.6312   52.6549 C.3     1  ZINC000643274279   -0.1200
     22 C22        -7.0479    1.8034   52.6400 C.3     1  ZINC000643274279    0.1800
     23 H23        -6.6872    2.5919   51.9795 H       1  ZINC000643274279    0.0900
     24 C24        -7.2245    2.3447   54.0353 C.ar    1  ZINC000643274279   -0.1000
     25 C25        -8.1577    1.7771   54.8828 C.ar    1  ZINC000643274279   -0.0900
     26 C26        -8.3215    2.2715   56.1624 C.ar    1  ZINC000643274279   -0.1400
     27 C27        -7.5481    3.3381   56.5968 C.ar    1  ZINC000643274279    0.1100
     28 O28        -7.7070    3.8260   57.8552 O.3     1  ZINC000643274279   -0.5000
     29 C29        -6.6120    3.9056   55.7446 C.ar    1  ZINC000643274279   -0.1400
     30 C30        -6.4487    3.4045   54.4677 C.ar    1  ZINC000643274279   -0.0900
     31 H31       -11.3942    2.9512   50.4913 H       1  ZINC000643274279    0.4200
     32 H32       -13.7365    1.4821   52.0990 H       1  ZINC000643274279    0.1400
     33 H33       -15.7681    0.3674   51.2659 H       1  ZINC000643274279    0.1400
     34 H34       -15.9166   -1.5330   48.2944 H       1  ZINC000643274279    0.0800
     35 H35       -16.8789   -0.8522   49.6292 H       1  ZINC000643274279    0.0800
     36 H36       -18.0434   -0.0074   47.8144 H       1  ZINC000643274279    0.0800
     37 H37       -16.8826    1.3071   48.0880 H       1  ZINC000643274279    0.0700
     38 H38       -16.4024   -0.9777   46.1582 H       1  ZINC000643274279    0.0700
     39 H39       -17.1609    0.5474   45.6856 H       1  ZINC000643274279    0.0800
     40 H40       -14.8279    0.5996   45.0996 H       1  ZINC000643274279    0.0900
     41 H41       -15.1201    1.7507   46.4223 H       1  ZINC000643274279    0.0900
     42 H42       -11.9606    1.1920   48.2181 H       1  ZINC000643274279    0.1300
     43 H43        -8.4963   -0.7517   52.7317 H       1  ZINC000643274279    0.0800
     44 H44        -8.7382   -0.4454   50.9845 H       1  ZINC000643274279    0.1000
     45 H45        -6.3520   -1.3834   51.8460 H       1  ZINC000643274279    0.0900
     46 H46        -6.3842   -0.0818   50.6094 H       1  ZINC000643274279    0.0800
     47 H47        -5.9910    0.1770   53.6443 H       1  ZINC000643274279    0.0800
     48 H48        -5.0593    0.9658   52.3294 H       1  ZINC000643274279    0.0900
     49 H49        -8.7596    0.9467   54.5442 H       1  ZINC000643274279    0.1200
     50 H50        -9.0512    1.8282   56.8238 H       1  ZINC000643274279    0.1300
     51 H51        -8.3811    3.3654   58.3734 H       1  ZINC000643274279    0.3900
     52 H52        -6.0090    4.7364   56.0804 H       1  ZINC000643274279    0.1300
     53 H53        -5.7199    3.8457   53.8040 H       1  ZINC000643274279    0.1300
@<TRIPOS>BOND
     1     1     2    2
     2     2     3   am
     3     2    16    1
     4     3     4    1
     5     3    31    1
     6     4    15   ar
     7     4     5   ar
     8     5     6   ar
     9     5    32    1
    10     6     7   ar
    11     6    33    1
    12     7    14   ar
    13     7     8    1
    14     8     9    1
    15     8    34    1
    16     8    35    1
    17     9    10    1
    18     9    36    1
    19     9    37    1
    20    10    11    1
    21    10    38    1
    22    10    39    1
    23    11    12    1
    24    11    40    1
    25    11    41    1
    26    12    13    2
    27    12    14    1
    28    14    15   ar
    29    15    42    1
    30    16    17    2
    31    16    18   am
    32    18    22    1
    33    18    19    1
    34    19    20    1
    35    19    43    1
    36    19    44    1
    37    20    21    1
    38    20    45    1
    39    20    46    1
    40    21    22    1
    41    21    47    1
    42    21    48    1
    43    22    23    1
    44    22    24    1
    45    24    30   ar
    46    24    25   ar
    47    25    26   ar
    48    25    49    1
    49    26    27   ar
    50    26    50    1
    51    27    28    1
    52    27    29   ar
    53    28    51    1
    54    29    30   ar
    55    29    52    1
    56    30    53    1
@<TRIPOS>SUBSTRUCTURE
     1 ZINC000643274279        1 TEMP              0 ****  ****    0 ROOT


##########                                Name:    ZINC000590699876
##########                DOCK_Rotatable_Bonds:                   9
##########                         Heavy_Atoms:                  30
##########                    Molecular_Weight:              421.54
##########                DOCK_Rotatable_Bonds:                   9
##########                       Formal_Charge:          -0.0300004
##########                     HBond_Acceptors:                   9
##########                        HBond_Donors:                   1
##########                         Heavy_Atoms:                  30
##########                          Grid_Score:          -29.884792
##########                     Grid_vdw_energy:          -27.832468
##########                      Grid_es_energy:           -2.052325
##########           Internal_energy_repulsive:          105.527283

@<TRIPOS>MOLECULE
ZINC000590699876
 65 67 1 0 0
SMALL
USER_CHARGES


@<TRIPOS>ATOM
      1 C1        -19.2906   -2.8766   60.1868 C.3     1  ZINC000590699876   -0.1700
      2 C2        -17.8866   -2.3847   60.4272 C.2     1  ZINC000590699876    0.5100
      3 O3        -17.6949   -1.2310   60.7480 O.2     1  ZINC000590699876   -0.5500
      4 N4        -16.8440   -3.2270   60.2856 N.am    1  ZINC000590699876   -0.7200
      5 C5        -15.4792   -2.7493   60.5210 C.3     1  ZINC000590699876    0.1100
      6 C6        -15.3749   -2.1950   61.9186 C.2     1  ZINC000590699876    0.5300
      7 O7        -15.9290   -2.7598   62.8377 O.2     1  ZINC000590699876   -0.5200
      8 N8        -14.6661   -1.0718   62.1468 N.am    1  ZINC000590699876   -0.6000
      9 C9        -14.4822   -0.4233   63.4580 C.3     1  ZINC000590699876    0.1000
     10 C10       -13.1677    0.3846   63.3200 C.3     1  ZINC000590699876   -0.1300
     11 C11       -13.2634    0.8872   61.8553 C.3     1  ZINC000590699876   -0.1300
     12 C12       -13.9429   -0.2936   61.1305 C.3     1  ZINC000590699876    0.1200
     13 H13       -14.6471    0.0827   60.3885 H       1  ZINC000590699876    0.1000
     14 C14       -12.9011   -1.1510   60.4594 C.2     1  ZINC000590699876    0.5100
     15 O15       -12.4677   -2.1326   61.0247 O.2     1  ZINC000590699876   -0.5200
     16 N16       -12.4510   -0.8271   59.2310 N.am    1  ZINC000590699876   -0.6100
     17 C17       -12.9574    0.3633   58.5311 C.3     1  ZINC000590699876    0.1000
     18 C18       -11.7608    1.1949   58.0571 C.3     1  ZINC000590699876    0.0400
     19 N19       -10.8605    0.3454   57.2661 N.3     1  ZINC000590699876   -0.5200
     20 C20        -9.7911    1.1420   56.6499 C.3     1  ZINC000590699876    0.0400
     21 C21        -9.5913    0.6972   55.2241 C.2     1  ZINC000590699876    0.5200
     22 O22       -10.4050   -0.0310   54.6963 O.2     1  ZINC000590699876   -0.5100
     23 N23        -8.5085    1.1087   54.5352 N.am    1  ZINC000590699876   -0.6100
     24 C24        -7.5141    1.9911   55.1607 C.3     1  ZINC000590699876    0.1100
     25 C25        -7.3142    3.2198   54.2680 C.3     1  ZINC000590699876   -0.1400
     26 C26        -6.9483    2.7636   52.8536 C.3     1  ZINC000590699876   -0.1200
     27 C27        -8.0909    1.9264   52.2743 C.3     1  ZINC000590699876   -0.1300
     28 C28        -8.2967    0.6785   53.1463 C.3     1  ZINC000590699876    0.1400
     29 H29        -7.4146    0.0410   53.0861 H       1  ZINC000590699876    0.0700
     30 C30        -9.5225   -0.0942   52.6549 C.3     1  ZINC000590699876   -0.1400
     31 C31       -10.3036   -0.7433   58.0800 C.3     1  ZINC000590699876    0.0400
     32 C32       -11.4359   -1.6512   58.5574 C.3     1  ZINC000590699876    0.1200
     33 H33       -19.9943   -2.0600   60.3481 H       1  ZINC000590699876    0.1000
     34 H34       -19.3793   -3.2356   59.1614 H       1  ZINC000590699876    0.0900
     35 H35       -19.5137   -3.6902   60.8770 H       1  ZINC000590699876    0.0900
     36 H36       -16.9972   -4.1494   60.0279 H       1  ZINC000590699876    0.4100
     37 H37       -14.7795   -3.5771   60.4053 H       1  ZINC000590699876    0.1000
     38 H38       -15.2389   -1.9670   59.8010 H       1  ZINC000590699876    0.1000
     39 H39       -15.3171    0.2442   63.6715 H       1  ZINC000590699876    0.0800
     40 H40       -14.3855   -1.1741   64.2422 H       1  ZINC000590699876    0.0800
     41 H41       -13.1475    1.2204   64.0193 H       1  ZINC000590699876    0.0900
     42 H42       -12.2979   -0.2581   63.4565 H       1  ZINC000590699876    0.0800
     43 H43       -13.8770    1.7861   61.7952 H       1  ZINC000590699876    0.1000
     44 H44       -12.2703    1.0689   61.4443 H       1  ZINC000590699876    0.0900
     45 H45       -13.5536    0.0567   57.6717 H       1  ZINC000590699876    0.0800
     46 H46       -13.5687    0.9558   59.2117 H       1  ZINC000590699876    0.0900
     47 H47       -12.1140    2.0225   57.4418 H       1  ZINC000590699876    0.0900
     48 H48       -11.2250    1.5869   58.9216 H       1  ZINC000590699876    0.0400
     49 H49       -10.0679    2.1962   56.6663 H       1  ZINC000590699876    0.1000
     50 H50        -8.8654    1.0008   57.2077 H       1  ZINC000590699876    0.0600
     51 H51        -7.8707    2.3061   56.1414 H       1  ZINC000590699876    0.0800
     52 H52        -6.5688    1.4589   55.2670 H       1  ZINC000590699876    0.0700
     53 H53        -8.2363    3.8001   54.2359 H       1  ZINC000590699876    0.0700
     54 H54        -6.5100    3.8355   54.6711 H       1  ZINC000590699876    0.0800
     55 H55        -6.7814    3.6364   52.2224 H       1  ZINC000590699876    0.0700
     56 H56        -6.0397    2.1627   52.8896 H       1  ZINC000590699876    0.0600
     57 H57        -9.0057    2.5189   52.2611 H       1  ZINC000590699876    0.0700
     58 H58        -7.8396    1.6214   51.2584 H       1  ZINC000590699876    0.0700
     59 H59        -9.3959   -0.3446   51.6016 H       1  ZINC000590699876    0.0400
     60 H60        -9.6314   -1.0102   53.2355 H       1  ZINC000590699876    0.0700
     61 H61       -10.4134    0.5218   52.7774 H       1  ZINC000590699876    0.0700
     62 H62        -9.5998   -1.3217   57.4812 H       1  ZINC000590699876    0.1100
     63 H63        -9.7880   -0.3245   58.9442 H       1  ZINC000590699876    0.0300
     64 H64       -11.0425   -2.3919   59.2535 H       1  ZINC000590699876    0.0900
     65 H65       -11.8886   -2.1526   57.7020 H       1  ZINC000590699876    0.0800
@<TRIPOS>BOND
     1     1     2    1
     2     1    33    1
     3     1    34    1
     4     1    35    1
     5     2     3    2
     6     2     4   am
     7     4     5    1
     8     4    36    1
     9     5     6    1
    10     5    37    1
    11     5    38    1
    12     6     7    2
    13     6     8   am
    14     8    12    1
    15     8     9    1
    16     9    10    1
    17     9    39    1
    18     9    40    1
    19    10    11    1
    20    10    41    1
    21    10    42    1
    22    11    12    1
    23    11    43    1
    24    11    44    1
    25    12    13    1
    26    12    14    1
    27    14    15    2
    28    14    16   am
    29    16    32    1
    30    16    17    1
    31    17    18    1
    32    17    45    1
    33    17    46    1
    34    18    19    1
    35    18    47    1
    36    18    48    1
    37    19    20    1
    38    19    31    1
    39    20    21    1
    40    20    49    1
    41    20    50    1
    42    21    22    2
    43    21    23   am
    44    23    28    1
    45    23    24    1
    46    24    25    1
    47    24    51    1
    48    24    52    1
    49    25    26    1
    50    25    53    1
    51    25    54    1
    52    26    27    1
    53    26    55    1
    54    26    56    1
    55    27    28    1
    56    27    57    1
    57    27    58    1
    58    28    29    1
    59    28    30    1
    60    30    59    1
    61    30    60    1
    62    30    61    1
    63    31    32    1
    64    31    62    1
    65    31    63    1
    66    32    64    1
    67    32    65    1
@<TRIPOS>SUBSTRUCTURE
     1 ZINC000590699876        1 TEMP              0 ****  ****    0 ROOT


##########                                Name:    ZINC000182378855
##########                DOCK_Rotatable_Bonds:                   8
##########                         Heavy_Atoms:                  27
##########                    Molecular_Weight:              394.83
##########                DOCK_Rotatable_Bonds:                   8
##########                       Formal_Charge:          -0.0200001
##########                     HBond_Acceptors:                   8
##########                        HBond_Donors:                   1
##########                         Heavy_Atoms:                  27
##########                          Grid_Score:          -29.841810
##########                     Grid_vdw_energy:          -27.198364
##########                      Grid_es_energy:           -2.643446
##########           Internal_energy_repulsive:           11.012252

@<TRIPOS>MOLECULE
ZINC000182378855
 47 49 1 0 0
SMALL
USER_CHARGES


@<TRIPOS>ATOM
      1 C1          3.8211    1.3422   57.8957 C.3     1  ZINC000182378855    0.0300
      2 O2          4.5031    2.1712   56.9525 O.3     1  ZINC000182378855   -0.3900
      3 C3          4.5727    1.6185   55.6365 C.3     1  ZINC000182378855    0.0600
      4 C4          5.3187    2.5862   54.7157 C.3     1  ZINC000182378855    0.0700
      5 O5          5.4367    2.0095   53.4136 O.3     1  ZINC000182378855   -0.2900
      6 C6          4.2829    1.7306   52.7564 C.ar    1  ZINC000182378855    0.3300
      7 C7          3.2903    2.6977   52.6718 C.ar    1  ZINC000182378855   -0.1300
      8 C8          2.1087    2.3957   51.9923 C.ar    1  ZINC000182378855   -0.0600
      9 C9          1.0215    3.3956   51.8754 C.2     1  ZINC000182378855    0.5600
     10 O10         1.1792    4.5184   52.3123 O.2     1  ZINC000182378855   -0.5200
     11 N11        -0.1423    3.0597   51.2846 N.am    1  ZINC000182378855   -0.7100
     12 C12        -1.2179    4.0478   51.1706 C.3     1  ZINC000182378855    0.1200
     13 H13        -0.8176    5.0122   50.8580 H       1  ZINC000182378855    0.1100
     14 C14        -1.9725    4.1838   52.5121 C.3     1  ZINC000182378855   -0.1700
     15 C15        -3.4195    3.7622   52.1732 C.3     1  ZINC000182378855    0.0400
     16 O16        -3.2948    2.9200   51.0065 O.3     1  ZINC000182378855   -0.3600
     17 C17        -2.2982    3.5600   50.1800 C.3     1  ZINC000182378855    0.1100
     18 H18        -2.7334    4.4052   49.6467 H       1  ZINC000182378855    0.1000
     19 C19        -1.7097    2.5710   49.2071 C.ar    1  ZINC000182378855   -0.0500
     20 C20        -1.9280    1.2173   49.3814 C.ar    1  ZINC000182378855   -0.1100
     21 C21        -1.3935    0.3088   48.4867 C.ar    1  ZINC000182378855   -0.0800
     22 C22        -0.6306    0.7531   47.4224 C.ar    1  ZINC000182378855   -0.0700
     23 Cl23        0.0459   -0.3878   46.3025 Cl      1  ZINC000182378855   -0.0400
     24 C24        -0.4068    2.1099   47.2503 C.ar    1  ZINC000182378855    0.1200
     25 F25         0.3380    2.5458   46.2108 F       1  ZINC000182378855   -0.1200
     26 C26        -0.9474    3.0180   48.1440 C.ar    1  ZINC000182378855   -0.1300
     27 C27         1.9788    1.1235   51.4243 C.ar    1  ZINC000182378855   -0.1900
     28 C28         3.0144    0.2205   51.5548 C.ar    1  ZINC000182378855    0.1400
     29 N29         4.1188    0.5429   52.1995 N.ar    1  ZINC000182378855   -0.5200
     30 H30         4.3351    0.3843   57.9758 H       1  ZINC000182378855    0.0400
     31 H31         3.8114    1.8319   58.8694 H       1  ZINC000182378855    0.0900
     32 H32         2.7968    1.1781   57.5613 H       1  ZINC000182378855    0.0400
     33 H33         5.1030    0.6668   55.6696 H       1  ZINC000182378855    0.0600
     34 H34         3.5639    1.4593   55.2555 H       1  ZINC000182378855    0.0700
     35 H35         4.7662    3.5235   54.6492 H       1  ZINC000182378855    0.0800
     36 H36         6.3129    2.7784   55.1193 H       1  ZINC000182378855    0.0800
     37 H37         3.4299    3.6682   53.1247 H       1  ZINC000182378855    0.1600
     38 H38        -0.2678    2.1636   50.9348 H       1  ZINC000182378855    0.4000
     39 H39        -1.5452    3.5158   53.2600 H       1  ZINC000182378855    0.0900
     40 H40        -1.9474    5.2160   52.8614 H       1  ZINC000182378855    0.0900
     41 H41        -3.8551    3.2021   53.0006 H       1  ZINC000182378855    0.1000
     42 H42        -4.0271    4.6384   51.9475 H       1  ZINC000182378855    0.0700
     43 H43        -2.5197    0.8692   50.2152 H       1  ZINC000182378855    0.1500
     44 H44        -1.5683   -0.7484   48.6215 H       1  ZINC000182378855    0.1500
     45 H45        -0.7740    4.0757   48.0107 H       1  ZINC000182378855    0.1500
     46 H46         1.0801    0.8519   50.8905 H       1  ZINC000182378855    0.1400
     47 H47         2.9207   -0.7631   51.1188 H       1  ZINC000182378855    0.1700
@<TRIPOS>BOND
     1     1     2    1
     2     1    30    1
     3     1    31    1
     4     1    32    1
     5     2     3    1
     6     3     4    1
     7     3    33    1
     8     3    34    1
     9     4     5    1
    10     4    35    1
    11     4    36    1
    12     5     6    1
    13     6    29   ar
    14     6     7   ar
    15     7     8   ar
    16     7    37    1
    17     8     9    1
    18     8    27   ar
    19     9    10    2
    20     9    11   am
    21    11    12    1
    22    11    38    1
    23    12    13    1
    24    12    17    1
    25    12    14    1
    26    14    15    1
    27    14    39    1
    28    14    40    1
    29    15    16    1
    30    15    41    1
    31    15    42    1
    32    16    17    1
    33    17    18    1
    34    17    19    1
    35    19    26   ar
    36    19    20   ar
    37    20    21   ar
    38    20    43    1
    39    21    22   ar
    40    21    44    1
    41    22    23    1
    42    22    24   ar
    43    24    25    1
    44    24    26   ar
    45    26    45    1
    46    27    28   ar
    47    27    46    1
    48    28    29   ar
    49    28    47    1
@<TRIPOS>SUBSTRUCTURE
     1 ZINC000182378855        1 TEMP              0 ****  ****    0 ROOT


##########                                Name:    ZINC000863246516
##########                DOCK_Rotatable_Bonds:                   5
##########                         Heavy_Atoms:                  25
##########                    Molecular_Weight:             356.489
##########                DOCK_Rotatable_Bonds:                   5
##########                       Formal_Charge:         -0.00999938
##########                     HBond_Acceptors:                   5
##########                        HBond_Donors:                   0
##########                         Heavy_Atoms:                  25
##########                          Grid_Score:          -29.838514
##########                     Grid_vdw_energy:          -29.987675
##########                      Grid_es_energy:            0.149160
##########           Internal_energy_repulsive:           11.498901

@<TRIPOS>MOLECULE
ZINC000863246516
 49 52 1 0 0
SMALL
USER_CHARGES


@<TRIPOS>ATOM
      1 C1        -17.8229   -7.1762   48.5452 C.3     1  ZINC000863246516   -0.0600
      2 C2        -17.5453   -6.3263   49.7584 C.2     1  ZINC000863246516   -0.2000
      3 C3        -17.3619   -6.7394   51.0047 C.2     1  ZINC000863246516    0.0900
      4 C4        -17.4142   -8.2007   51.3690 C.3     1  ZINC000863246516   -0.1000
      5 N5        -17.1232   -5.7772   51.9402 N.am    1  ZINC000863246516   -0.5300
      6 C6        -16.9055   -6.1192   53.3480 C.3     1  ZINC000863246516    0.1200
      7 C7        -15.4129   -6.3510   53.5915 C.3     1  ZINC000863246516   -0.1500
      8 C8        -15.1639   -6.5101   55.0693 C.2     1  ZINC000863246516    0.5400
      9 O9        -15.2220   -7.6090   55.5793 O.2     1  ZINC000863246516   -0.5300
     10 N10       -14.8769   -5.4312   55.8243 N.am    1  ZINC000863246516   -0.6100
     11 C11       -14.7774   -4.0528   55.3313 C.3     1  ZINC000863246516    0.1100
     12 C12       -14.8972   -3.1325   56.5610 C.3     1  ZINC000863246516   -0.1300
     13 H13       -15.8705   -2.6618   56.6991 H       1  ZINC000863246516    0.1000
     14 C14       -13.6672   -2.2320   56.7625 C.3     1  ZINC000863246516   -0.1200
     15 C15       -12.9554   -3.4584   57.3559 C.3     1  ZINC000863246516   -0.0600
     16 H16       -12.4340   -4.0617   56.6128 H       1  ZINC000863246516    0.1000
     17 C17       -12.0989   -3.1372   58.5536 C.ar    1  ZINC000863246516   -0.0700
     18 C18       -10.7872   -3.5710   58.6015 C.ar    1  ZINC000863246516   -0.1200
     19 C19       -10.0016   -3.2765   59.7001 C.ar    1  ZINC000863246516   -0.1200
     20 C20       -10.5274   -2.5478   60.7506 C.ar    1  ZINC000863246516   -0.1200
     21 C21       -11.8388   -2.1132   60.7021 C.ar    1  ZINC000863246516   -0.1200
     22 C22       -12.6232   -2.4041   59.6016 C.ar    1  ZINC000863246516   -0.1200
     23 C23       -14.3640   -4.0062   57.7238 C.3     1  ZINC000863246516   -0.1100
     24 H24       -14.7221   -3.7624   58.7239 H       1  ZINC000863246516    0.1200
     25 C25       -14.6213   -5.4502   57.2683 C.3     1  ZINC000863246516    0.1200
     26 C26       -17.0952   -4.5032   51.5180 C.2     1  ZINC000863246516    0.4800
     27 O27       -16.8989   -3.5095   52.1949 O.2     1  ZINC000863246516   -0.4700
     28 S28       -17.3871   -4.5623   49.8217 S.3     1  ZINC000863246516    0.0100
     29 H29       -17.9192   -6.5366   47.6679 H       1  ZINC000863246516    0.0700
     30 H30       -17.0007   -7.8761   48.3961 H       1  ZINC000863246516    0.0800
     31 H31       -18.7495   -7.7305   48.6942 H       1  ZINC000863246516    0.0800
     32 H32       -17.6163   -8.7910   50.4752 H       1  ZINC000863246516    0.0900
     33 H33       -16.4579   -8.5033   51.7956 H       1  ZINC000863246516    0.0800
     34 H34       -18.2062   -8.3650   52.0996 H       1  ZINC000863246516    0.0800
     35 H35       -17.2538   -5.3012   53.9786 H       1  ZINC000863246516    0.1000
     36 H36       -17.4585   -7.0264   53.5911 H       1  ZINC000863246516    0.1000
     37 H37       -15.0957   -7.2543   53.0704 H       1  ZINC000863246516    0.1000
     38 H38       -14.8469   -5.4979   53.2174 H       1  ZINC000863246516    0.1000
     39 H39       -13.8147   -3.8997   54.8434 H       1  ZINC000863246516    0.0700
     40 H40       -15.5875   -3.8475   54.6316 H       1  ZINC000863246516    0.0800
     41 H41       -13.2262   -1.8811   55.8295 H       1  ZINC000863246516    0.0800
     42 H42       -13.8275   -1.4300   57.4831 H       1  ZINC000863246516    0.0900
     43 H43       -10.3764   -4.1403   57.7809 H       1  ZINC000863246516    0.1200
     44 H44        -8.9770   -3.6160   59.7379 H       1  ZINC000863246516    0.1200
     45 H45        -9.9139   -2.3183   61.6092 H       1  ZINC000863246516    0.1200
     46 H46       -12.2498   -1.5443   61.5230 H       1  ZINC000863246516    0.1200
     47 H47       -13.6478   -2.0647   59.5639 H       1  ZINC000863246516    0.1200
     48 H48       -15.4787   -5.8583   57.8036 H       1  ZINC000863246516    0.0700
     49 H49       -13.7399   -6.0610   57.4638 H       1  ZINC000863246516    0.0700
@<TRIPOS>BOND
     1     1     2    1
     2     1    29    1
     3     1    30    1
     4     1    31    1
     5     2    28    1
     6     2     3    2
     7     3     4    1
     8     3     5    1
     9     4    32    1
    10     4    33    1
    11     4    34    1
    12     5     6    1
    13     5    26   am
    14     6     7    1
    15     6    35    1
    16     6    36    1
    17     7     8    1
    18     7    37    1
    19     7    38    1
    20     8     9    2
    21     8    10   am
    22    10    25    1
    23    10    11    1
    24    11    12    1
    25    11    39    1
    26    11    40    1
    27    12    13    1
    28    12    23    1
    29    12    14    1
    30    14    15    1
    31    14    41    1
    32    14    42    1
    33    15    16    1
    34    15    17    1
    35    15    23    1
    36    17    22   ar
    37    17    18   ar
    38    18    19   ar
    39    18    43    1
    40    19    20   ar
    41    19    44    1
    42    20    21   ar
    43    20    45    1
    44    21    22   ar
    45    21    46    1
    46    22    47    1
    47    23    24    1
    48    23    25    1
    49    25    48    1
    50    25    49    1
    51    26    27    2
    52    26    28    1
@<TRIPOS>SUBSTRUCTURE
     1 ZINC000863246516        1 TEMP              0 ****  ****    0 ROOT


##########                                Name:    ZINC001009116151
##########                DOCK_Rotatable_Bonds:                   6
##########                         Heavy_Atoms:                  25
##########                    Molecular_Weight:             342.481
##########                DOCK_Rotatable_Bonds:                   6
##########                       Formal_Charge:           0.0600006
##########                     HBond_Acceptors:                   4
##########                        HBond_Donors:                   1
##########                         Heavy_Atoms:                  25
##########                          Grid_Score:          -29.814476
##########                     Grid_vdw_energy:          -28.658995
##########                      Grid_es_energy:           -1.155480
##########           Internal_energy_repulsive:            9.487514

@<TRIPOS>MOLECULE
ZINC001009116151
 55 59 1 0 0
SMALL
USER_CHARGES


@<TRIPOS>ATOM
      1 O1         -0.8072    1.1690   49.1397 O.2     1  ZINC001009116151   -0.5400
      2 C2          0.1930    1.4137   48.4989 C.2     1  ZINC001009116151    0.5200
      3 N3          1.3005    1.8612   49.1232 N.am    1  ZINC001009116151   -0.7300
      4 C4          1.2942    2.0579   50.5749 C.3     1  ZINC001009116151    0.1500
      5 C5          2.6964    1.8013   51.1305 C.3     1  ZINC001009116151   -0.1200
      6 H6          3.5202    2.0865   50.4761 H       1  ZINC001009116151    0.1100
      7 C7          2.8908    0.5652   52.0110 C.3     1  ZINC001009116151   -0.1700
      8 H8          2.0598   -0.1240   52.1606 H       1  ZINC001009116151    0.1200
      9 C9          4.3212    0.0088   52.1786 C.3     1  ZINC001009116151    0.1300
     10 N10         4.8865    0.7680   53.3182 N.am    1  ZINC001009116151   -0.6200
     11 C11         5.6724    0.3059   54.3108 C.2     1  ZINC001009116151    0.5500
     12 O12         5.9955   -0.8628   54.3345 O.2     1  ZINC001009116151   -0.5300
     13 C13         6.1498    1.2417   55.3914 C.3     1  ZINC001009116151   -0.1200
     14 C14         5.2635    1.1303   56.6536 C.3     1  ZINC001009116151   -0.0900
     15 C15         5.9647    0.1161   57.5271 C.2     1  ZINC001009116151   -0.1800
     16 C16         7.1977   -0.0653   57.1395 C.2     1  ZINC001009116151   -0.1500
     17 C17         7.5245    0.7975   55.9429 C.3     1  ZINC001009116151   -0.0900
     18 C18         4.3920    2.1502   53.1192 C.3     1  ZINC001009116151    0.1200
     19 C19         2.9005    1.9738   52.6370 C.3     1  ZINC001009116151   -0.1600
     20 H20         2.1112    2.3487   53.2886 H       1  ZINC001009116151    0.1300
     21 C21         0.1996    1.2114   47.0056 C.3     1  ZINC001009116151   -0.0700
     22 C22         1.5494    0.6338   46.5750 C.3     1  ZINC001009116151   -0.1100
     23 C23         1.5560    0.4285   45.0590 C.3     1  ZINC001009116151   -0.1100
     24 C24         0.2106    0.8691   44.4787 C.3     1  ZINC001009116151   -0.0900
     25 C25        -0.9110    0.0354   45.1014 C.3     1  ZINC001009116151   -0.1100
     26 C26        -0.9176    0.2408   46.6175 C.3     1  ZINC001009116151   -0.0900
     27 C27        -0.0198    2.3488   44.7919 C.3     1  ZINC001009116151   -0.1100
     28 C28        -0.0264    2.5542   46.3081 C.3     1  ZINC001009116151   -0.1000
     29 H29         2.1018    2.0531   48.6113 H       1  ZINC001009116151    0.4000
     30 H30         0.9951    3.0812   50.8016 H       1  ZINC001009116151    0.0800
     31 H31         0.5894    1.3636   51.0325 H       1  ZINC001009116151    0.0700
     32 H32         4.2901   -1.0561   52.4093 H       1  ZINC001009116151    0.0900
     33 H33         4.9062    0.1861   51.2761 H       1  ZINC001009116151    0.0800
     34 H34         6.1872    2.2687   55.0281 H       1  ZINC001009116151    0.1100
     35 H35         5.2040    2.0927   57.1619 H       1  ZINC001009116151    0.0900
     36 H36         4.2668    0.7780   56.3878 H       1  ZINC001009116151    0.0800
     37 H37         5.5060   -0.3916   58.3626 H       1  ZINC001009116151    0.1300
     38 H38         7.8933   -0.7430   57.6121 H       1  ZINC001009116151    0.1300
     39 H39         8.0652    0.2190   55.1938 H       1  ZINC001009116151    0.0900
     40 H40         8.1094    1.6650   56.2486 H       1  ZINC001009116151    0.0900
     41 H41         4.4144    2.7010   54.0595 H       1  ZINC001009116151    0.0900
     42 H42         4.9880    2.6620   52.3636 H       1  ZINC001009116151    0.0800
     43 H43         2.3452    1.3254   46.8515 H       1  ZINC001009116151    0.0700
     44 H44         1.7103   -0.3228   47.0721 H       1  ZINC001009116151    0.0700
     45 H45         2.3551    1.0225   44.6153 H       1  ZINC001009116151    0.0700
     46 H46         1.7201   -0.6257   44.8358 H       1  ZINC001009116151    0.0700
     47 H47         0.2154    0.7228   43.3985 H       1  ZINC001009116151    0.0700
     48 H48        -1.8695    0.3493   44.6880 H       1  ZINC001009116151    0.0700
     49 H49        -0.7468   -1.0189   44.8783 H       1  ZINC001009116151    0.0700
     50 H50        -0.7566   -0.7159   47.1144 H       1  ZINC001009116151    0.0700
     51 H51        -1.8792    0.6522   46.9243 H       1  ZINC001009116151    0.0700
     52 H52         0.7793    2.9429   44.3483 H       1  ZINC001009116151    0.0700
     53 H53        -0.9783    2.6628   44.3785 H       1  ZINC001009116151    0.0700
     54 H54        -0.9881    2.9657   46.6147 H       1  ZINC001009116151    0.0700
     55 H55         0.7695    3.2458   46.5845 H       1  ZINC001009116151    0.0700
@<TRIPOS>BOND
     1     1     2    2
     2     2     3   am
     3     2    21    1
     4     3     4    1
     5     3    29    1
     6     4     5    1
     7     4    30    1
     8     4    31    1
     9     5     6    1
    10     5    19    1
    11     5     7    1
    12     7     8    1
    13     7    19    1
    14     7     9    1
    15     9    10    1
    16     9    32    1
    17     9    33    1
    18    10    11   am
    19    10    18    1
    20    11    12    2
    21    11    13    1
    22    13    17    1
    23    13    14    1
    24    13    34    1
    25    14    15    1
    26    14    35    1
    27    14    36    1
    28    15    16    2
    29    15    37    1
    30    16    17    1
    31    16    38    1
    32    17    39    1
    33    17    40    1
    34    18    19    1
    35    18    41    1
    36    18    42    1
    37    19    20    1
    38    21    26    1
    39    21    28    1
    40    21    22    1
    41    22    23    1
    42    22    43    1
    43    22    44    1
    44    23    24    1
    45    23    45    1
    46    23    46    1
    47    24    25    1
    48    24    27    1
    49    24    47    1
    50    25    26    1
    51    25    48    1
    52    25    49    1
    53    26    50    1
    54    26    51    1
    55    27    28    1
    56    27    52    1
    57    27    53    1
    58    28    54    1
    59    28    55    1
@<TRIPOS>SUBSTRUCTURE
     1 ZINC001009116151        1 TEMP              0 ****  ****    0 ROOT


##########                                Name:    ZINC000502834785
##########                DOCK_Rotatable_Bonds:                   9
##########                         Heavy_Atoms:                  26
##########                    Molecular_Weight:             356.468
##########                DOCK_Rotatable_Bonds:                   9
##########                       Formal_Charge:           0.0199998
##########                     HBond_Acceptors:                   6
##########                        HBond_Donors:                   2
##########                         Heavy_Atoms:                  26
##########                          Grid_Score:          -29.811729
##########                     Grid_vdw_energy:          -27.731543
##########                      Grid_es_energy:           -2.080188
##########           Internal_energy_repulsive:          137.558823

@<TRIPOS>MOLECULE
ZINC000502834785
 54 56 1 0 0
SMALL
USER_CHARGES


@<TRIPOS>ATOM
      1 C1         -2.3463    5.3446   51.2832 C.3     1  ZINC000502834785   -0.1800
      2 C2         -2.4492    3.8609   51.6425 C.3     1  ZINC000502834785    0.0800
      3 C3         -3.8008    3.5895   52.3061 C.3     1  ZINC000502834785   -0.1500
      4 O4         -2.3350    3.0742   50.4550 O.3     1  ZINC000502834785   -0.3800
      5 C5         -0.9895    2.7475   50.1014 C.3     1  ZINC000502834785    0.1000
      6 C6         -0.9605    2.1801   48.7057 C.ar    1  ZINC000502834785   -0.0800
      7 C7         -0.9642    0.8108   48.5160 C.ar    1  ZINC000502834785   -0.1000
      8 C8         -0.9377    0.2904   47.2356 C.ar    1  ZINC000502834785   -0.1000
      9 C9         -0.9078    1.1392   46.1450 C.ar    1  ZINC000502834785   -0.1000
     10 C10        -0.8784    0.5717   44.7491 C.3     1  ZINC000502834785    0.1600
     11 N11         0.1432    1.2659   43.9613 N.am    1  ZINC000502834785   -0.7300
     12 C12         1.4334    0.8858   44.0463 C.2     1  ZINC000502834785    0.5100
     13 O13         1.7485   -0.0319   44.7740 O.2     1  ZINC000502834785   -0.5200
     14 C14         2.4845    1.6011   43.2372 C.3     1  ZINC000502834785    0.0300
     15 N15         2.0802    2.9989   43.0359 N.3     1  ZINC000502834785   -0.5000
     16 C16         3.0898    3.7337   42.2441 C.3     1  ZINC000502834785    0.0500
     17 C17         3.0577    5.1775   42.8045 C.3     1  ZINC000502834785   -0.1300
     18 C18         2.8314    4.9214   44.3177 C.3     1  ZINC000502834785   -0.1300
     19 C19         1.9028    3.6889   44.3267 C.3     1  ZINC000502834785    0.1500
     20 H20         0.8661    4.0065   44.4381 H       1  ZINC000502834785    0.1100
     21 C21         2.2816    2.7699   45.4593 C.2     1  ZINC000502834785    0.0600
     22 N22         1.4673    1.9807   46.1120 N.2     1  ZINC000502834785   -0.2900
     23 N23         2.2074    1.2955   47.0842 N.pl3   1  ZINC000502834785   -0.4800
     24 C24         3.4911    1.7011   46.9913 C.2     1  ZINC000502834785    0.0600
     25 C25         3.5655    2.6088   45.9905 C.2     1  ZINC000502834785   -0.2600
     26 C26        -0.9055    2.5084   46.3346 C.ar    1  ZINC000502834785   -0.1000
     27 C27        -0.9359    3.0289   47.6149 C.ar    1  ZINC000502834785   -0.1000
     28 H28        -1.3834    5.5380   50.8104 H       1  ZINC000502834785    0.0600
     29 H29        -3.1489    5.6081   50.5942 H       1  ZINC000502834785    0.0600
     30 H30        -2.4335    5.9447   52.1889 H       1  ZINC000502834785    0.0700
     31 H31        -1.6467    3.5975   52.3315 H       1  ZINC000502834785    0.0600
     32 H32        -4.6033    3.8529   51.6171 H       1  ZINC000502834785    0.0600
     33 H33        -3.8740    2.5325   52.5621 H       1  ZINC000502834785    0.0600
     34 H34        -3.8879    4.1895   53.2119 H       1  ZINC000502834785    0.0700
     35 H35        -0.3748    3.6468   50.1409 H       1  ZINC000502834785    0.0600
     36 H36        -0.5988    2.0094   50.8019 H       1  ZINC000502834785    0.0600
     37 H37        -0.9875    0.1477   49.3681 H       1  ZINC000502834785    0.1300
     38 H38        -0.9398   -0.7794   47.0874 H       1  ZINC000502834785    0.1300
     39 H39        -0.6423   -0.4914   44.7941 H       1  ZINC000502834785    0.0800
     40 H40        -1.8531    0.7081   44.2808 H       1  ZINC000502834785    0.0800
     41 H41        -0.1090    1.9991   43.3783 H       1  ZINC000502834785    0.4000
     42 H42         3.4354    1.5709   43.7692 H       1  ZINC000502834785    0.1000
     43 H43         2.5938    1.1115   42.2696 H       1  ZINC000502834785    0.0800
     44 H44         4.0768    3.2936   42.3857 H       1  ZINC000502834785    0.0400
     45 H45         2.8198    3.7304   41.1881 H       1  ZINC000502834785    0.1000
     46 H46         4.0071    5.6845   42.6319 H       1  ZINC000502834785    0.0800
     47 H47         2.2308    5.7442   42.3765 H       1  ZINC000502834785    0.0800
     48 H48         3.7746    4.6970   44.8159 H       1  ZINC000502834785    0.0800
     49 H49         2.3418    5.7762   44.7843 H       1  ZINC000502834785    0.0800
     50 H50         1.8588    0.6444   47.7131 H       1  ZINC000502834785    0.4400
     51 H51         4.3128    1.3592   47.6032 H       1  ZINC000502834785    0.1800
     52 H52         4.4574    3.1227   45.6638 H       1  ZINC000502834785    0.1500
     53 H53        -0.8826    3.1716   45.4825 H       1  ZINC000502834785    0.1300
     54 H54        -0.9342    4.0987   47.7631 H       1  ZINC000502834785    0.1200
@<TRIPOS>BOND
     1     1     2    1
     2     1    28    1
     3     1    29    1
     4     1    30    1
     5     2     3    1
     6     2     4    1
     7     2    31    1
     8     3    32    1
     9     3    33    1
    10     3    34    1
    11     4     5    1
    12     5     6    1
    13     5    35    1
    14     5    36    1
    15     6    27   ar
    16     6     7   ar
    17     7     8   ar
    18     7    37    1
    19     8     9   ar
    20     8    38    1
    21     9    10    1
    22     9    26   ar
    23    10    11    1
    24    10    39    1
    25    10    40    1
    26    11    12   am
    27    11    41    1
    28    12    13    2
    29    12    14    1
    30    14    15    1
    31    14    42    1
    32    14    43    1
    33    15    19    1
    34    15    16    1
    35    16    17    1
    36    16    44    1
    37    16    45    1
    38    17    18    1
    39    17    46    1
    40    17    47    1
    41    18    19    1
    42    18    48    1
    43    18    49    1
    44    19    20    1
    45    19    21    1
    46    21    25    1
    47    21    22    2
    48    22    23    1
    49    23    24    1
    50    23    50    1
    51    24    25    2
    52    24    51    1
    53    25    52    1
    54    26    27   ar
    55    26    53    1
    56    27    54    1
@<TRIPOS>SUBSTRUCTURE
     1 ZINC000502834785        1 TEMP              0 ****  ****    0 ROOT


##########                                Name:    ZINC000647468483
##########                DOCK_Rotatable_Bonds:                   5
##########                         Heavy_Atoms:                  24
##########                    Molecular_Weight:             341.373
##########                DOCK_Rotatable_Bonds:                   5
##########                       Formal_Charge:           0.0300004
##########                     HBond_Acceptors:                   6
##########                        HBond_Donors:                   2
##########                         Heavy_Atoms:                  24
##########                          Grid_Score:          -29.795662
##########                     Grid_vdw_energy:          -21.409977
##########                      Grid_es_energy:           -8.385684
##########           Internal_energy_repulsive:           20.198572

@<TRIPOS>MOLECULE
ZINC000647468483
 46 48 1 0 0
SMALL
USER_CHARGES


@<TRIPOS>ATOM
      1 O1        -17.3835    0.6229   64.3654 O.co2   1  ZINC000647468483   -0.6800
      2 C2        -16.2910    0.1414   64.1183 C.2     1  ZINC000647468483    0.5000
      3 O3        -15.5706   -0.2345   65.0275 O.co2   1  ZINC000647468483   -0.6900
      4 C4        -15.8334    0.0050   62.6889 C.3     1  ZINC000647468483   -0.1500
      5 H5        -16.3050    0.7604   62.0602 H       1  ZINC000647468483    0.0800
      6 C6        -16.1275   -1.4176   62.1518 C.3     1  ZINC000647468483   -0.1100
      7 C7        -15.1156   -1.6048   61.0025 C.3     1  ZINC000647468483   -0.1400
      8 C8        -13.9471   -0.6442   61.2849 C.3     1  ZINC000647468483    0.0100
      9 H9        -13.8468    0.0718   60.4691 H       1  ZINC000647468483    0.1400
     10 N10       -12.6993   -1.4027   61.4444 N.4     1  ZINC000647468483   -0.5000
     11 H11       -12.7023   -1.8709   62.3383 H       1  ZINC000647468483    0.4200
     12 H12       -12.6250   -2.0870   60.7066 H       1  ZINC000647468483    0.4300
     13 C13       -11.5555   -0.4835   61.3768 C.3     1  ZINC000647468483    0.0200
     14 H14       -11.8687    0.4716   60.9552 H       1  ZINC000647468483    0.1500
     15 C15       -10.9659   -0.2713   62.7822 C.3     1  ZINC000647468483   -0.1400
     16 C16        -9.5057   -0.7655   62.7268 C.3     1  ZINC000647468483   -0.1300
     17 C17        -9.4884   -1.7679   61.5461 C.3     1  ZINC000647468483   -0.1300
     18 C18       -10.4334   -1.0989   60.5154 C.3     1  ZINC000647468483   -0.0600
     19 H19        -9.9058   -0.3213   59.9628 H       1  ZINC000647468483    0.1300
     20 C20       -10.9949   -2.1283   59.5687 C.ar    1  ZINC000647468483   -0.1200
     21 C21       -10.4517   -3.3985   59.5277 C.ar    1  ZINC000647468483   -0.0700
     22 C22       -10.9668   -4.3429   58.6591 C.ar    1  ZINC000647468483   -0.1000
     23 C23       -12.0252   -4.0168   57.8322 C.ar    1  ZINC000647468483   -0.0600
     24 C24       -12.5690   -2.7464   57.8739 C.ar    1  ZINC000647468483   -0.1600
     25 C25       -13.7228   -2.3907   56.9719 C.3     1  ZINC000647468483    0.5000
     26 F26       -14.9065   -2.3650   57.7170 F       1  ZINC000647468483   -0.1700
     27 F27       -13.5008   -1.1310   56.4054 F       1  ZINC000647468483   -0.1700
     28 F28       -13.8320   -3.3462   55.9558 F       1  ZINC000647468483   -0.1700
     29 C29       -12.0569   -1.8036   58.7452 C.ar    1  ZINC000647468483   -0.1100
     30 C30       -14.2902    0.0983   62.5952 C.3     1  ZINC000647468483   -0.1200
     31 H31       -15.9616   -2.1615   62.9310 H       1  ZINC000647468483    0.0800
     32 H32       -17.1484   -1.4796   61.7749 H       1  ZINC000647468483    0.0800
     33 H33       -14.7569   -2.6339   60.9847 H       1  ZINC000647468483    0.0700
     34 H34       -15.5823   -1.3551   60.0496 H       1  ZINC000647468483    0.1000
     35 H35       -10.9924    0.7869   63.0423 H       1  ZINC000647468483    0.1000
     36 H36       -11.5286   -0.8504   63.5145 H       1  ZINC000647468483    0.0900
     37 H37        -8.8286    0.0660   62.5312 H       1  ZINC000647468483    0.0800
     38 H38        -9.2371   -1.2669   63.6567 H       1  ZINC000647468483    0.0900
     39 H39        -8.4823   -1.8683   61.1392 H       1  ZINC000647468483    0.0900
     40 H40        -9.8792   -2.7371   61.8564 H       1  ZINC000647468483    0.0800
     41 H41        -9.6247   -3.6533   60.1739 H       1  ZINC000647468483    0.1400
     42 H42       -10.5419   -5.3352   58.6267 H       1  ZINC000647468483    0.1500
     43 H43       -12.4270   -4.7542   57.1532 H       1  ZINC000647468483    0.1500
     44 H44       -12.4817   -0.8112   58.7778 H       1  ZINC000647468483    0.1400
     45 H45       -13.9687    1.1383   62.5399 H       1  ZINC000647468483    0.0900
     46 H46       -13.8287   -0.3998   63.4480 H       1  ZINC000647468483    0.1000
@<TRIPOS>BOND
     1     1     2   ar
     2     2     3   ar
     3     2     4    1
     4     4     5    1
     5     4    30    1
     6     4     6    1
     7     6     7    1
     8     6    31    1
     9     6    32    1
    10     7     8    1
    11     7    33    1
    12     7    34    1
    13     8     9    1
    14     8    10    1
    15     8    30    1
    16    10    11    1
    17    10    12    1
    18    10    13    1
    19    13    14    1
    20    13    18    1
    21    13    15    1
    22    15    16    1
    23    15    35    1
    24    15    36    1
    25    16    17    1
    26    16    37    1
    27    16    38    1
    28    17    18    1
    29    17    39    1
    30    17    40    1
    31    18    19    1
    32    18    20    1
    33    20    29   ar
    34    20    21   ar
    35    21    22   ar
    36    21    41    1
    37    22    23   ar
    38    22    42    1
    39    23    24   ar
    40    23    43    1
    41    24    25    1
    42    24    29   ar
    43    25    26    1
    44    25    27    1
    45    25    28    1
    46    29    44    1
    47    30    45    1
    48    30    46    1
@<TRIPOS>SUBSTRUCTURE
     1 ZINC000647468483        1 TEMP              0 ****  ****    0 ROOT


##########                                Name:    ZINC000672622940
##########                DOCK_Rotatable_Bonds:                   7
##########                         Heavy_Atoms:                  30
##########                    Molecular_Weight:             416.523
##########                DOCK_Rotatable_Bonds:                   7
##########                       Formal_Charge:          -0.0100002
##########                     HBond_Acceptors:                   9
##########                        HBond_Donors:                   1
##########                         Heavy_Atoms:                  30
##########                          Grid_Score:          -29.773405
##########                     Grid_vdw_energy:          -28.042223
##########                      Grid_es_energy:           -1.731182
##########           Internal_energy_repulsive:           19.397612

@<TRIPOS>MOLECULE
ZINC000672622940
 62 65 1 0 0
SMALL
USER_CHARGES


@<TRIPOS>ATOM
      1 C1         -8.7076    4.4217   54.8701 C.3     1  ZINC000672622940    0.0800
      2 N2         -7.7292    3.9010   53.9121 N.am    1  ZINC000672622940   -0.6200
      3 C3         -6.4331    4.5654   53.7545 C.3     1  ZINC000672622940    0.0700
      4 C4         -8.0216    2.8106   53.1758 C.2     1  ZINC000672622940    0.5200
      5 O5         -7.2110    2.3786   52.3838 O.2     1  ZINC000672622940   -0.5300
      6 C6         -9.3556    2.1283   53.3367 C.3     1  ZINC000672622940   -0.1000
      7 H7        -10.1084    2.8641   53.6193 H       1  ZINC000672622940    0.1000
      8 C8         -9.7556    1.4718   52.0139 C.3     1  ZINC000672622940   -0.1300
      9 C9        -11.1099    0.7790   52.1772 C.3     1  ZINC000672622940   -0.1100
     10 C10       -11.0076   -0.2902   53.2668 C.3     1  ZINC000672622940   -0.1300
     11 C11       -10.6077    0.3663   54.5897 C.3     1  ZINC000672622940    0.1400
     12 H12       -11.3605    1.1022   54.8723 H       1  ZINC000672622940    0.1000
     13 N13       -10.5098   -0.6576   55.6330 N.am    1  ZINC000672622940   -0.6900
     14 C14       -11.5891   -0.9643   56.3796 C.2     1  ZINC000672622940    0.5100
     15 O15       -12.6425   -0.3934   56.1866 O.2     1  ZINC000672622940   -0.5100
     16 C16       -11.4888   -2.0074   57.4450 C.2     1  ZINC000672622940    0.5100
     17 O17       -12.0162   -3.0888   57.2871 O.2     1  ZINC000672622940   -0.5200
     18 N18       -10.8123   -1.7471   58.5814 N.am    1  ZINC000672622940   -0.5800
     19 C19       -10.1735   -0.4405   58.7897 C.3     1  ZINC000672622940    0.0700
     20 C20       -10.6590    0.1388   60.1222 C.3     1  ZINC000672622940   -0.1200
     21 C21       -10.3977   -0.8738   61.2396 C.3     1  ZINC000672622940    0.0000
     22 C22       -10.8429   -0.2936   62.5572 C.2     1  ZINC000672622940    0.2000
     23 N23       -12.0343    0.1569   62.8414 N.2     1  ZINC000672622940   -0.2800
     24 N24       -12.0599    0.5762   64.0565 N.2     1  ZINC000672622940   -0.2800
     25 C25       -10.8845    0.4108   64.6029 C.2     1  ZINC000672622940    0.1500
     26 C26       -10.1159    0.6135   65.8908 C.3     1  ZINC000672622940   -0.0400
     27 C27        -8.8637   -0.2787   65.7316 C.3     1  ZINC000672622940   -0.1300
     28 C28        -8.7277   -0.3615   64.1955 C.3     1  ZINC000672622940    0.1000
     29 N29       -10.0817   -0.1480   63.6700 N.pl3   1  ZINC000672622940   -0.4900
     30 C30       -11.1793   -2.1593   60.9583 C.3     1  ZINC000672622940   -0.1200
     31 C31       -10.7049   -2.7624   59.6379 C.3     1  ZINC000672622940    0.1100
     32 C32        -9.2534    1.0591   54.4263 C.3     1  ZINC000672622940   -0.1100
     33 H33        -9.3476    5.1522   54.3751 H       1  ZINC000672622940    0.0600
     34 H34        -9.3177    3.6016   55.2486 H       1  ZINC000672622940    0.0800
     35 H35        -8.1855    4.8990   55.6995 H       1  ZINC000672622940    0.0700
     36 H36        -5.7143    4.1289   54.4481 H       1  ZINC000672622940    0.0600
     37 H37        -6.0786    4.4325   52.7324 H       1  ZINC000672622940    0.0800
     38 H38        -6.5420    5.6292   53.9659 H       1  ZINC000672622940    0.0700
     39 H39        -9.8284    2.2336   51.2376 H       1  ZINC000672622940    0.0800
     40 H40        -9.0027    0.7359   51.7313 H       1  ZINC000672622940    0.0700
     41 H41       -11.8627    1.5149   52.4599 H       1  ZINC000672622940    0.0700
     42 H42       -11.3947    0.3113   51.2348 H       1  ZINC000672622940    0.0700
     43 H43       -11.9724   -0.7838   53.3833 H       1  ZINC000672622940    0.0700
     44 H44       -10.2548   -1.0261   52.9842 H       1  ZINC000672622940    0.0700
     45 H45        -9.6681   -1.1147   55.7865 H       1  ZINC000672622940    0.4100
     46 H46        -9.0908   -0.5634   58.8175 H       1  ZINC000672622940    0.0700
     47 H47       -10.4462    0.2332   57.9774 H       1  ZINC000672622940    0.1400
     48 H48       -10.1206    1.0623   60.3351 H       1  ZINC000672622940    0.0800
     49 H49       -11.7274    0.3457   60.0613 H       1  ZINC000672622940    0.0800
     50 H50        -9.3322   -1.0993   61.2836 H       1  ZINC000672622940    0.0900
     51 H51        -9.8277    1.6588   66.0024 H       1  ZINC000672622940    0.1000
     52 H52       -10.7102    0.2878   66.7446 H       1  ZINC000672622940    0.1000
     53 H53        -7.9883    0.1953   66.1756 H       1  ZINC000672622940    0.1100
     54 H54        -9.0312   -1.2661   66.1620 H       1  ZINC000672622940    0.0900
     55 H55        -8.0522    0.4141   63.8347 H       1  ZINC000672622940    0.1000
     56 H56        -8.3635   -1.3461   63.9020 H       1  ZINC000672622940    0.1000
     57 H57       -11.0113   -2.8714   61.7663 H       1  ZINC000672622940    0.0800
     58 H58       -12.2428   -1.9306   60.8895 H       1  ZINC000672622940    0.0800
     59 H59       -11.3257   -3.6220   59.3849 H       1  ZINC000672622940    0.1000
     60 H60        -9.6650   -3.0752   59.7317 H       1  ZINC000672622940    0.0800
     61 H61        -8.5005    0.3232   54.1437 H       1  ZINC000672622940    0.0800
     62 H62        -8.9684    1.5267   55.3688 H       1  ZINC000672622940    0.0800
@<TRIPOS>BOND
     1     1     2    1
     2     1    33    1
     3     1    34    1
     4     1    35    1
     5     2     3    1
     6     2     4   am
     7     3    36    1
     8     3    37    1
     9     3    38    1
    10     4     5    2
    11     4     6    1
    12     6     7    1
    13     6    32    1
    14     6     8    1
    15     8     9    1
    16     8    39    1
    17     8    40    1
    18     9    10    1
    19     9    41    1
    20     9    42    1
    21    10    11    1
    22    10    43    1
    23    10    44    1
    24    11    12    1
    25    11    13    1
    26    11    32    1
    27    13    14   am
    28    13    45    1
    29    14    15    2
    30    14    16    1
    31    16    17    2
    32    16    18   am
    33    18    31    1
    34    18    19    1
    35    19    20    1
    36    19    46    1
    37    19    47    1
    38    20    21    1
    39    20    48    1
    40    20    49    1
    41    21    22    1
    42    21    30    1
    43    21    50    1
    44    22    29    1
    45    22    23    2
    46    23    24    1
    47    24    25    2
    48    25    29    1
    49    25    26    1
    50    26    27    1
    51    26    51    1
    52    26    52    1
    53    27    28    1
    54    27    53    1
    55    27    54    1
    56    28    29    1
    57    28    55    1
    58    28    56    1
    59    30    31    1
    60    30    57    1
    61    30    58    1
    62    31    59    1
    63    31    60    1
    64    32    61    1
    65    32    62    1
@<TRIPOS>SUBSTRUCTURE
     1 ZINC000672622940        1 TEMP              0 ****  ****    0 ROOT


##########                                Name:    ZINC000523153175
##########                DOCK_Rotatable_Bonds:                   9
##########                         Heavy_Atoms:                  30
##########                    Molecular_Weight:             413.603
##########                DOCK_Rotatable_Bonds:                   9
##########                       Formal_Charge:           0.0499987
##########                     HBond_Acceptors:                   5
##########                        HBond_Donors:                   1
##########                         Heavy_Atoms:                  30
##########                          Grid_Score:          -29.772739
##########                     Grid_vdw_energy:          -29.549351
##########                      Grid_es_energy:           -0.223388
##########           Internal_energy_repulsive:           30.786009

@<TRIPOS>MOLECULE
ZINC000523153175
 69 71 1 0 0
SMALL
USER_CHARGES


@<TRIPOS>ATOM
      1 C1        -15.5579   -4.6986   54.7685 C.3     1  ZINC000523153175   -0.1500
      2 C2        -15.1431   -4.2834   56.1815 C.3     1  ZINC000523153175   -0.0600
      3 C3        -14.6713   -5.5150   56.9571 C.3     1  ZINC000523153175   -0.1400
      4 C4        -14.0215   -3.2801   56.1013 C.ar    1  ZINC000523153175   -0.0800
      5 C5        -12.7474   -3.6936   55.7596 C.ar    1  ZINC000523153175   -0.1100
      6 C6        -11.7186   -2.7732   55.6860 C.ar    1  ZINC000523153175   -0.1100
      7 C7        -11.9639   -1.4394   55.9538 C.ar    1  ZINC000523153175   -0.0800
      8 C8        -10.8421   -0.4362   55.8741 C.3     1  ZINC000523153175   -0.0300
      9 H9         -9.9071   -0.9531   55.6581 H       1  ZINC000523153175    0.0800
     10 C10       -11.1370    0.5711   54.7608 C.3     1  ZINC000523153175   -0.1500
     11 C11       -10.7211    0.3005   57.2095 C.3     1  ZINC000523153175   -0.1300
     12 C12       -10.1639   -0.6355   58.2508 C.2     1  ZINC000523153175    0.5200
     13 O13        -9.7599   -1.7321   57.9265 O.2     1  ZINC000523153175   -0.5300
     14 N14       -10.1146   -0.2542   59.5426 N.am    1  ZINC000523153175   -0.6200
     15 C15       -10.6066    1.0681   59.9586 C.3     1  ZINC000523153175    0.1100
     16 C16       -11.5793    0.8799   61.1275 C.3     1  ZINC000523153175    0.0400
     17 N17       -10.9234    0.1000   62.1856 N.3     1  ZINC000523153175   -0.5100
     18 C18       -11.7589    0.0434   63.3926 C.3     1  ZINC000523153175    0.0600
     19 H19       -11.5709   -0.8912   63.9211 H       1  ZINC000523153175    0.1100
     20 C20       -11.4173    1.2229   64.3051 C.3     1  ZINC000523153175   -0.1800
     21 C21       -13.2125    0.1155   63.0012 C.2     1  ZINC000523153175    0.5200
     22 O22       -13.7728    1.1895   62.9452 O.2     1  ZINC000523153175   -0.5200
     23 N23       -13.8896   -1.0138   62.7133 N.am    1  ZINC000523153175   -0.7200
     24 C24       -15.3021   -0.9436   62.3311 C.3     1  ZINC000523153175    0.1400
     25 C25       -15.4281   -0.7614   60.8045 C.3     1  ZINC000523153175   -0.1300
     26 C26       -15.6334   -2.1991   60.2659 C.3     1  ZINC000523153175   -0.1300
     27 C27       -16.5379   -2.8426   61.3462 C.3     1  ZINC000523153175   -0.1300
     28 C28       -16.0078   -2.2669   62.6756 C.3     1  ZINC000523153175   -0.1300
     29 C29       -10.5813   -1.2500   61.7183 C.3     1  ZINC000523153175    0.0400
     30 C30        -9.5733   -1.1515   60.5746 C.3     1  ZINC000523153175    0.1200
     31 C31       -13.2382   -1.0258   56.2941 C.ar    1  ZINC000523153175   -0.1100
     32 C32       -14.2679   -1.9455   56.3639 C.ar    1  ZINC000523153175   -0.1200
     33 H33       -16.3691   -5.4244   54.8264 H       1  ZINC000523153175    0.0600
     34 H34       -15.8939   -3.8213   54.2160 H       1  ZINC000523153175    0.0600
     35 H35       -14.7060   -5.1461   54.2565 H       1  ZINC000523153175    0.0600
     36 H36       -15.9950   -3.8360   56.6935 H       1  ZINC000523153175    0.0800
     37 H37       -13.8194   -5.9624   56.4451 H       1  ZINC000523153175    0.0600
     38 H38       -14.3756   -5.2191   57.9637 H       1  ZINC000523153175    0.0600
     39 H39       -15.4825   -6.2407   57.0151 H       1  ZINC000523153175    0.0600
     40 H40       -12.5557   -4.7356   55.5504 H       1  ZINC000523153175    0.1200
     41 H41       -10.7230   -3.0963   55.4197 H       1  ZINC000523153175    0.1200
     42 H42       -10.3257    1.2968   54.7032 H       1  ZINC000523153175    0.0800
     43 H43       -11.2233    0.0462   53.8094 H       1  ZINC000523153175    0.0600
     44 H44       -12.0721    1.0879   54.9768 H       1  ZINC000523153175    0.0500
     45 H45       -10.0535    1.1545   57.0942 H       1  ZINC000523153175    0.0900
     46 H46       -11.7053    0.6484   57.5231 H       1  ZINC000523153175    0.0900
     47 H47        -9.7677    1.6874   60.2763 H       1  ZINC000523153175    0.0800
     48 H48       -11.1229    1.5453   59.1257 H       1  ZINC000523153175    0.0900
     49 H49       -11.8688    1.8545   61.5204 H       1  ZINC000523153175    0.0900
     50 H50       -12.4660    0.3490   60.7810 H       1  ZINC000523153175    0.0400
     51 H51       -11.6054    2.1575   63.7766 H       1  ZINC000523153175    0.0700
     52 H52       -12.0372    1.1809   65.2006 H       1  ZINC000523153175    0.0700
     53 H53       -10.3659    1.1708   64.5882 H       1  ZINC000523153175    0.0700
     54 H54       -13.4417   -1.8729   62.7593 H       1  ZINC000523153175    0.4000
     55 H55       -15.7878   -0.1159   62.8480 H       1  ZINC000523153175    0.0900
     56 H56       -16.2890   -0.1375   60.5644 H       1  ZINC000523153175    0.0700
     57 H57       -14.5155   -0.3275   60.3955 H       1  ZINC000523153175    0.0700
     58 H58       -16.1381   -2.1813   59.3000 H       1  ZINC000523153175    0.0700
     59 H59       -14.6812   -2.7250   60.1959 H       1  ZINC000523153175    0.0700
     60 H60       -17.5780   -2.5549   61.1936 H       1  ZINC000523153175    0.0700
     61 H61       -16.4353   -3.9277   61.3326 H       1  ZINC000523153175    0.0700
     62 H62       -15.2992   -2.9614   63.1271 H       1  ZINC000523153175    0.0700
     63 H63       -16.8364   -2.0813   63.3589 H       1  ZINC000523153175    0.0800
     64 H64       -10.1470   -1.8200   62.5397 H       1  ZINC000523153175    0.1000
     65 H65       -11.4819   -1.7512   61.3636 H       1  ZINC000523153175    0.0400
     66 H66        -9.4039   -2.1408   60.1495 H       1  ZINC000523153175    0.1000
     67 H67        -8.6336   -0.7449   60.9486 H       1  ZINC000523153175    0.0800
     68 H68       -13.4299    0.0163   56.5030 H       1  ZINC000523153175    0.1200
     69 H69       -15.2635   -1.6224   56.6298 H       1  ZINC000523153175    0.1200
@<TRIPOS>BOND
     1     1     2    1
     2     1    33    1
     3     1    34    1
     4     1    35    1
     5     2     3    1
     6     2     4    1
     7     2    36    1
     8     3    37    1
     9     3    38    1
    10     3    39    1
    11     4    32   ar
    12     4     5   ar
    13     5     6   ar
    14     5    40    1
    15     6     7   ar
    16     6    41    1
    17     7     8    1
    18     7    31   ar
    19     8     9    1
    20     8    10    1
    21     8    11    1
    22    10    42    1
    23    10    43    1
    24    10    44    1
    25    11    12    1
    26    11    45    1
    27    11    46    1
    28    12    13    2
    29    12    14   am
    30    14    30    1
    31    14    15    1
    32    15    16    1
    33    15    47    1
    34    15    48    1
    35    16    17    1
    36    16    49    1
    37    16    50    1
    38    17    18    1
    39    17    29    1
    40    18    19    1
    41    18    20    1
    42    18    21    1
    43    20    51    1
    44    20    52    1
    45    20    53    1
    46    21    22    2
    47    21    23   am
    48    23    24    1
    49    23    54    1
    50    24    28    1
    51    24    25    1
    52    24    55    1
    53    25    26    1
    54    25    56    1
    55    25    57    1
    56    26    27    1
    57    26    58    1
    58    26    59    1
    59    27    28    1
    60    27    60    1
    61    27    61    1
    62    28    62    1
    63    28    63    1
    64    29    30    1
    65    29    64    1
    66    29    65    1
    67    30    66    1
    68    30    67    1
    69    31    32   ar
    70    31    68    1
    71    32    69    1
@<TRIPOS>SUBSTRUCTURE
     1 ZINC000523153175        1 TEMP              0 ****  ****    0 ROOT


##########                                Name:    ZINC000288921983
##########                DOCK_Rotatable_Bonds:                   6
##########                         Heavy_Atoms:                  26
##########                    Molecular_Weight:             356.428
##########                DOCK_Rotatable_Bonds:                   6
##########                       Formal_Charge:           0.0199997
##########                     HBond_Acceptors:                   8
##########                        HBond_Donors:                   1
##########                         Heavy_Atoms:                  26
##########                          Grid_Score:          -29.766085
##########                     Grid_vdw_energy:          -28.930670
##########                      Grid_es_energy:           -0.835414
##########           Internal_energy_repulsive:           59.166958

@<TRIPOS>MOLECULE
ZINC000288921983
 50 53 1 0 0
SMALL
USER_CHARGES


@<TRIPOS>ATOM
      1 C1        -18.8755   -2.8773   60.5672 C.3     1  ZINC000288921983   -0.1400
      2 C2        -17.4262   -3.2888   60.3006 C.3     1  ZINC000288921983   -0.0500
      3 C3        -16.4975   -2.3815   61.0658 C.ar    1  ZINC000288921983    0.3000
      4 N4        -16.0133   -1.3110   60.4686 N.ar    1  ZINC000288921983   -0.5000
      5 C5        -15.1953   -0.4896   61.1057 C.ar    1  ZINC000288921983    0.1300
      6 C6        -14.8485   -0.7703   62.4245 C.ar    1  ZINC000288921983    0.0500
      7 N7        -13.9862    0.0729   63.1355 N.am    1  ZINC000288921983   -0.6700
      8 C8        -12.6595    0.0320   62.9019 C.2     1  ZINC000288921983    0.7100
      9 O9        -12.2114   -0.7373   62.0738 O.2     1  ZINC000288921983   -0.5500
     10 N10       -11.8293    0.8437   63.5863 N.am    1  ZINC000288921983   -0.6200
     11 C11       -12.3558    1.7785   64.5902 C.3     1  ZINC000288921983    0.1100
     12 C12       -11.6138    1.5525   65.9113 C.3     1  ZINC000288921983   -0.1400
     13 C13       -10.1068    1.6702   65.6720 C.3     1  ZINC000288921983   -0.1200
     14 C14        -9.6611    0.5956   64.6777 C.3     1  ZINC000288921983   -0.1300
     15 C15       -10.3802    0.8064   63.3470 C.3     1  ZINC000288921983    0.2700
     16 H16       -10.0640    1.7521   62.9066 H       1  ZINC000288921983    0.1100
     17 C17       -10.0474   -0.3244   62.4081 C.2     1  ZINC000288921983    0.1700
     18 N18        -9.8423   -1.5672   62.7404 N.2     1  ZINC000288921983   -0.2500
     19 N19        -9.5836   -2.2546   61.6839 N.2     1  ZINC000288921983   -0.2700
     20 C20        -9.6148   -1.4736   60.6417 C.2     1  ZINC000288921983    0.1800
     21 C21        -9.3669   -1.8831   59.2128 C.3     1  ZINC000288921983   -0.0300
     22 C22       -10.0160   -3.2250   58.8350 C.3     1  ZINC000288921983   -0.1200
     23 C23       -11.2664   -2.4202   58.4433 C.3     1  ZINC000288921983   -0.1400
     24 C24       -10.3273   -1.2254   58.2080 C.3     1  ZINC000288921983   -0.1200
     25 O25        -9.9134   -0.2370   61.0740 O.3     1  ZINC000288921983   -0.2200
     26 C26       -15.3821   -1.9111   63.0179 C.ar    1  ZINC000288921983    0.1600
     27 N27       -16.1976   -2.6787   62.3142 N.ar    1  ZINC000288921983   -0.5000
     28 H28       -19.5472   -3.5336   60.0138 H       1  ZINC000288921983    0.0700
     29 H29       -19.0859   -2.9579   61.6337 H       1  ZINC000288921983    0.0600
     30 H30       -19.0260   -1.8472   60.2440 H       1  ZINC000288921983    0.0600
     31 H31       -17.2756   -4.3188   60.6238 H       1  ZINC000288921983    0.0900
     32 H32       -17.2159   -3.2081   59.2341 H       1  ZINC000288921983    0.0900
     33 H33       -14.8020    0.3856   60.6100 H       1  ZINC000288921983    0.1700
     34 H34       -14.3437    0.6866   63.7962 H       1  ZINC000288921983    0.4100
     35 H35       -12.1984    2.8031   64.2535 H       1  ZINC000288921983    0.0800
     36 H36       -13.4211    1.5984   64.7340 H       1  ZINC000288921983    0.0800
     37 H37       -11.9267    2.3030   66.6372 H       1  ZINC000288921983    0.0900
     38 H38       -11.8451    0.5580   66.2929 H       1  ZINC000288921983    0.0700
     39 H39        -9.8793    2.6563   65.2672 H       1  ZINC000288921983    0.0700
     40 H40        -9.5777    1.5341   66.6152 H       1  ZINC000288921983    0.0800
     41 H41        -8.5840    0.6651   64.5257 H       1  ZINC000288921983    0.0900
     42 H42        -9.9107   -0.3899   65.0709 H       1  ZINC000288921983    0.0900
     43 H43        -8.3176   -1.8083   58.9271 H       1  ZINC000288921983    0.1000
     44 H44        -9.5343   -3.7211   57.9923 H       1  ZINC000288921983    0.1000
     45 H45       -10.1726   -3.8889   59.6851 H       1  ZINC000288921983    0.0800
     46 H46       -11.7507   -2.7802   57.5357 H       1  ZINC000288921983    0.0700
     47 H47       -11.9651   -2.2709   59.2665 H       1  ZINC000288921983    0.1000
     48 H48       -10.7354   -0.2749   58.5519 H       1  ZINC000288921983    0.0700
     49 H49        -9.9309   -1.1747   57.1938 H       1  ZINC000288921983    0.1000
     50 H50       -15.1370   -2.1634   64.0390 H       1  ZINC000288921983    0.1800
@<TRIPOS>BOND
     1     1     2    1
     2     1    28    1
     3     1    29    1
     4     1    30    1
     5     2     3    1
     6     2    31    1
     7     2    32    1
     8     3    27   ar
     9     3     4   ar
    10     4     5   ar
    11     5     6   ar
    12     5    33    1
    13     6     7    1
    14     6    26   ar
    15     7     8   am
    16     7    34    1
    17     8     9    2
    18     8    10   am
    19    10    15    1
    20    10    11    1
    21    11    12    1
    22    11    35    1
    23    11    36    1
    24    12    13    1
    25    12    37    1
    26    12    38    1
    27    13    14    1
    28    13    39    1
    29    13    40    1
    30    14    15    1
    31    14    41    1
    32    14    42    1
    33    15    16    1
    34    15    17    1
    35    17    25    1
    36    17    18    2
    37    18    19    1
    38    19    20    2
    39    20    21    1
    40    20    25    1
    41    21    24    1
    42    21    22    1
    43    21    43    1
    44    22    23    1
    45    22    44    1
    46    22    45    1
    47    23    24    1
    48    23    46    1
    49    23    47    1
    50    24    48    1
    51    24    49    1
    52    26    27   ar
    53    26    50    1
@<TRIPOS>SUBSTRUCTURE
     1 ZINC000288921983        1 TEMP              0 ****  ****    0 ROOT


##########                                Name:    ZINC000471198073
##########                DOCK_Rotatable_Bonds:                  12
##########                         Heavy_Atoms:                  30
##########                    Molecular_Weight:             409.528
##########                DOCK_Rotatable_Bonds:                  12
##########                       Formal_Charge:          -0.0399998
##########                     HBond_Acceptors:                   6
##########                        HBond_Donors:                   3
##########                         Heavy_Atoms:                  30
##########                          Grid_Score:          -29.729046
##########                     Grid_vdw_energy:          -24.745348
##########                      Grid_es_energy:           -4.983699
##########           Internal_energy_repulsive:           44.606457

@<TRIPOS>MOLECULE
ZINC000471198073
 61 62 1 0 0
SMALL
USER_CHARGES


@<TRIPOS>ATOM
      1 C1        -16.5532   -0.4866   63.2913 C.3     1  ZINC000471198073   -0.1400
      2 C2        -16.0107    0.9216   63.0390 C.3     1  ZINC000471198073   -0.1100
      3 C3        -16.1238    1.7490   64.3210 C.3     1  ZINC000471198073   -0.1500
      4 C4        -14.5650    0.8359   62.6225 C.2     1  ZINC000471198073    0.5200
      5 O5        -14.1062    1.6529   61.8523 O.2     1  ZINC000471198073   -0.5200
      6 N6        -13.7816   -0.1486   63.1059 N.am    1  ZINC000471198073   -0.6700
      7 C7        -12.4392   -0.2282   62.7192 C.ar    1  ZINC000471198073    0.1600
      8 C8        -12.1067   -0.6943   61.4536 C.ar    1  ZINC000471198073   -0.1500
      9 C9        -10.7813   -0.7730   61.0705 C.ar    1  ZINC000471198073   -0.0800
     10 C10        -9.7828   -0.3886   61.9439 C.ar    1  ZINC000471198073   -0.1300
     11 C11       -10.1086    0.0783   63.2120 C.ar    1  ZINC000471198073    0.1500
     12 N12        -9.0981    0.4667   64.0954 N.am    1  ZINC000471198073   -0.6400
     13 C13        -8.6521   -0.3958   65.0301 C.2     1  ZINC000471198073    0.5100
     14 O14        -9.1281   -1.5098   65.1045 O.2     1  ZINC000471198073   -0.5000
     15 C15        -7.5720    0.0193   65.9744 C.2     1  ZINC000471198073    0.5100
     16 O16        -7.2402   -0.7186   66.8790 O.2     1  ZINC000471198073   -0.5100
     17 N17        -6.9659    1.2134   65.8221 N.am    1  ZINC000471198073   -0.7000
     18 C18        -5.9076    1.6214   66.7493 C.3     1  ZINC000471198073    0.1200
     19 C19        -5.0552    2.7144   66.1015 C.3     1  ZINC000471198073   -0.0900
     20 H20        -4.3864    3.1435   66.8476 H       1  ZINC000471198073    0.0800
     21 C21        -4.2298    2.1103   64.9637 C.3     1  ZINC000471198073   -0.0800
     22 C22        -2.7848    2.5064   65.1262 C.ar    1  ZINC000471198073   -0.0800
     23 C23        -2.2656    2.7234   66.3888 C.ar    1  ZINC000471198073   -0.1200
     24 C24        -0.9402    3.0867   66.5379 C.ar    1  ZINC000471198073   -0.1200
     25 C25        -0.1340    3.2327   65.4245 C.ar    1  ZINC000471198073   -0.1200
     26 C26        -0.6531    3.0147   64.1620 C.ar    1  ZINC000471198073   -0.1200
     27 C27        -1.9773    2.6472   64.0131 C.ar    1  ZINC000471198073   -0.1200
     28 C28        -5.9672    3.8092   65.5444 C.3     1  ZINC000471198073   -0.1000
     29 C29        -6.8131    4.3938   66.6774 C.3     1  ZINC000471198073   -0.1600
     30 C30        -5.1138    4.9160   64.9217 C.3     1  ZINC000471198073   -0.1700
     31 C31       -11.4391    0.1638   63.5975 C.ar    1  ZINC000471198073   -0.1400
     32 H32       -17.5988   -0.4245   63.5925 H       1  ZINC000471198073    0.0700
     33 H33       -16.4726   -1.0760   62.3779 H       1  ZINC000471198073    0.0600
     34 H34       -15.9746   -0.9623   64.0830 H       1  ZINC000471198073    0.0600
     35 H35       -16.5893    1.3974   62.2473 H       1  ZINC000471198073    0.1000
     36 H36       -15.5453    1.2732   65.1128 H       1  ZINC000471198073    0.0600
     37 H37       -15.7374    2.7523   64.1413 H       1  ZINC000471198073    0.0600
     38 H38       -17.1696    1.8110   64.6223 H       1  ZINC000471198073    0.0700
     39 H39       -14.1485   -0.8020   63.7217 H       1  ZINC000471198073    0.4100
     40 H40       -12.8850   -0.9961   60.7683 H       1  ZINC000471198073    0.1300
     41 H41       -10.5256   -1.1361   60.0860 H       1  ZINC000471198073    0.1300
     42 H42        -8.7479   -0.4513   61.6416 H       1  ZINC000471198073    0.1400
     43 H43        -8.7177    1.3570   64.0360 H       1  ZINC000471198073    0.4200
     44 H44        -7.2303    1.8027   65.0983 H       1  ZINC000471198073    0.4200
     45 H45        -6.3557    2.0054   67.6657 H       1  ZINC000471198073    0.0700
     46 H46        -5.2794    0.7622   66.9844 H       1  ZINC000471198073    0.0800
     47 H47        -4.3140    1.0239   64.9909 H       1  ZINC000471198073    0.0800
     48 H48        -4.6026    2.4799   64.0085 H       1  ZINC000471198073    0.0800
     49 H49        -2.8954    2.6095   67.2587 H       1  ZINC000471198073    0.1200
     50 H50        -0.5347    3.2571   67.5243 H       1  ZINC000471198073    0.1200
     51 H51         0.9013    3.5172   65.5409 H       1  ZINC000471198073    0.1200
     52 H52        -0.0234    3.1290   63.2921 H       1  ZINC000471198073    0.1200
     53 H53        -2.3830    2.4769   63.0267 H       1  ZINC000471198073    0.1200
     54 H54        -6.6224    3.3842   64.7839 H       1  ZINC000471198073    0.0800
     55 H55        -6.1643    4.9048   67.3887 H       1  ZINC000471198073    0.0600
     56 H56        -7.5311    5.1032   66.2659 H       1  ZINC000471198073    0.0600
     57 H57        -7.3465    3.5900   67.1846 H       1  ZINC000471198073    0.0600
     58 H58        -4.4205    4.4792   64.2029 H       1  ZINC000471198073    0.0600
     59 H59        -5.7608    5.6313   64.4139 H       1  ZINC000471198073    0.0600
     60 H60        -4.5524    5.4258   65.7046 H       1  ZINC000471198073    0.0700
     61 H61       -11.6950    0.5263   64.5821 H       1  ZINC000471198073    0.1400
@<TRIPOS>BOND
     1     1     2    1
     2     1    32    1
     3     1    33    1
     4     1    34    1
     5     2     3    1
     6     2     4    1
     7     2    35    1
     8     3    36    1
     9     3    37    1
    10     3    38    1
    11     4     5    2
    12     4     6   am
    13     6     7    1
    14     6    39    1
    15     7    31   ar
    16     7     8   ar
    17     8     9   ar
    18     8    40    1
    19     9    10   ar
    20     9    41    1
    21    10    11   ar
    22    10    42    1
    23    11    12    1
    24    11    31   ar
    25    12    13   am
    26    12    43    1
    27    13    14    2
    28    13    15    1
    29    15    16    2
    30    15    17   am
    31    17    18    1
    32    17    44    1
    33    18    19    1
    34    18    45    1
    35    18    46    1
    36    19    20    1
    37    19    21    1
    38    19    28    1
    39    21    22    1
    40    21    47    1
    41    21    48    1
    42    22    27   ar
    43    22    23   ar
    44    23    24   ar
    45    23    49    1
    46    24    25   ar
    47    24    50    1
    48    25    26   ar
    49    25    51    1
    50    26    27   ar
    51    26    52    1
    52    27    53    1
    53    28    29    1
    54    28    30    1
    55    28    54    1
    56    29    55    1
    57    29    56    1
    58    29    57    1
    59    30    58    1
    60    30    59    1
    61    30    60    1
    62    31    61    1
@<TRIPOS>SUBSTRUCTURE
     1 ZINC000471198073        1 TEMP              0 ****  ****    0 ROOT


##########                                Name:    ZINC000326056918
##########                DOCK_Rotatable_Bonds:                   6
##########                         Heavy_Atoms:                  24
##########                    Molecular_Weight:             408.326
##########                DOCK_Rotatable_Bonds:                   6
##########                       Formal_Charge:         -0.00999978
##########                     HBond_Acceptors:                   9
##########                        HBond_Donors:                   0
##########                         Heavy_Atoms:                  24
##########                          Grid_Score:          -29.716524
##########                     Grid_vdw_energy:          -29.857359
##########                      Grid_es_energy:            0.140835
##########           Internal_energy_repulsive:           29.237310

@<TRIPOS>MOLECULE
ZINC000326056918
 39 40 1 0 0
SMALL
USER_CHARGES


@<TRIPOS>ATOM
      1 C1         -8.9661    2.7302   56.3289 C.3     1  ZINC000326056918    0.0400
      2 O2         -9.0244    2.3209   57.7207 O.3     1  ZINC000326056918   -0.3500
      3 C3        -10.0887    1.5827   58.0979 C.2     1  ZINC000326056918    0.5000
      4 O4        -10.9437    1.2884   57.2844 O.2     1  ZINC000326056918   -0.4300
      5 C5        -10.2147    1.1361   59.4863 C.2     1  ZINC000326056918   -0.1600
      6 C6         -9.9739   -0.1324   59.9367 C.2     1  ZINC000326056918   -0.6200
      7 S7         -9.4628   -1.4523   58.8871 S.o2    1  ZINC000326056918    2.6900
      8 O8         -8.7490   -0.8569   57.8123 O.2     1  ZINC000326056918   -0.9100
      9 O9         -8.9038   -2.4460   59.7353 O.2     1  ZINC000326056918   -0.9400
     10 N10       -10.8312   -2.1142   58.2300 N.am    1  ZINC000326056918   -0.9900
     11 C11       -11.0133   -2.1273   56.7765 C.3     1  ZINC000326056918    0.0900
     12 C12       -11.8597   -2.6866   59.1023 C.3     1  ZINC000326056918    0.1500
     13 C13       -12.6587   -3.7073   58.3339 C.ar    1  ZINC000326056918   -0.0900
     14 C14       -13.9405   -3.4072   57.9134 C.ar    1  ZINC000326056918   -0.0800
     15 C15       -14.6744   -4.3431   57.2088 C.ar    1  ZINC000326056918   -0.1100
     16 C16       -14.1259   -5.5808   56.9239 C.ar    1  ZINC000326056918   -0.0200
     17 Cl17      -15.0474   -6.7558   56.0387 Cl      1  ZINC000326056918   -0.0600
     18 C18       -12.8426   -5.8816   57.3442 C.ar    1  ZINC000326056918   -0.1100
     19 C19       -12.1070   -4.9429   58.0446 C.ar    1  ZINC000326056918   -0.0300
     20 Cl20      -10.4963   -5.3193   58.5720 Cl      1  ZINC000326056918   -0.0100
     21 C21       -10.1695   -0.2751   61.2893 C.2     1  ZINC000326056918   -0.0400
     22 C22        -9.9623   -1.5865   62.0022 C.3     1  ZINC000326056918   -0.1100
     23 C23       -10.5570    0.8360   61.9274 C.2     1  ZINC000326056918   -0.2600
     24 S24       -10.6926    2.1466   60.8436 S.3     1  ZINC000326056918    0.3100
     25 H25        -8.0625    3.3161   56.1600 H       1  ZINC000326056918    0.1100
     26 H26        -8.9508    1.8469   55.6906 H       1  ZINC000326056918    0.0700
     27 H27        -9.8411    3.3352   56.0911 H       1  ZINC000326056918    0.0700
     28 H28       -10.5137   -2.9998   56.3555 H       1  ZINC000326056918    0.0600
     29 H29       -12.0773   -2.1704   56.5440 H       1  ZINC000326056918    0.0700
     30 H30       -10.5843   -1.2212   56.3484 H       1  ZINC000326056918    0.0900
     31 H31       -11.3845   -3.1663   59.9580 H       1  ZINC000326056918    0.1100
     32 H32       -12.5220   -1.8944   59.4514 H       1  ZINC000326056918    0.0900
     33 H33       -14.3692   -2.4411   58.1356 H       1  ZINC000326056918    0.1400
     34 H34       -15.6764   -4.1083   56.8811 H       1  ZINC000326056918    0.1400
     35 H35       -12.4139   -6.8478   57.1220 H       1  ZINC000326056918    0.1500
     36 H36        -8.9052   -1.7087   62.2382 H       1  ZINC000326056918    0.0900
     37 H37       -10.5437   -1.5945   62.9243 H       1  ZINC000326056918    0.0700
     38 H38       -10.2883   -2.4047   61.3600 H       1  ZINC000326056918    0.0900
     39 H39       -10.7538    0.8956   62.9877 H       1  ZINC000326056918    0.1800
@<TRIPOS>BOND
     1     1     2    1
     2     1    25    1
     3     1    26    1
     4     1    27    1
     5     2     3    1
     6     3     4    2
     7     3     5    1
     8     5    24    1
     9     5     6    2
    10     6     7    1
    11     6    21    1
    12     7     8    2
    13     7     9    2
    14     7    10   am
    15    10    11    1
    16    10    12    1
    17    11    28    1
    18    11    29    1
    19    11    30    1
    20    12    13    1
    21    12    31    1
    22    12    32    1
    23    13    19   ar
    24    13    14   ar
    25    14    15   ar
    26    14    33    1
    27    15    16   ar
    28    15    34    1
    29    16    17    1
    30    16    18   ar
    31    18    19   ar
    32    18    35    1
    33    19    20    1
    34    21    22    1
    35    21    23    2
    36    22    36    1
    37    22    37    1
    38    22    38    1
    39    23    24    1
    40    23    39    1
@<TRIPOS>SUBSTRUCTURE
     1 ZINC000326056918        1 TEMP              0 ****  ****    0 ROOT


##########                                Name:    ZINC000790735374
##########                DOCK_Rotatable_Bonds:                   5
##########                         Heavy_Atoms:                  25
##########                    Molecular_Weight:             353.445
##########                DOCK_Rotatable_Bonds:                   5
##########                       Formal_Charge:                   0
##########                     HBond_Acceptors:                   6
##########                        HBond_Donors:                   1
##########                         Heavy_Atoms:                  25
##########                          Grid_Score:          -29.715624
##########                     Grid_vdw_energy:          -27.659225
##########                      Grid_es_energy:           -2.056398
##########           Internal_energy_repulsive:            7.848770

@<TRIPOS>MOLECULE
ZINC000790735374
 44 47 1 0 0
SMALL
USER_CHARGES


@<TRIPOS>ATOM
      1 O1         -9.3619    0.2583   66.9600 O.2     1  ZINC000790735374   -0.5100
      2 C2         -8.5054   -0.0505   66.1588 C.2     1  ZINC000790735374    0.5000
      3 N3         -8.8130   -0.1571   64.8510 N.am    1  ZINC000790735374   -0.7200
      4 C4        -10.1834    0.0939   64.3980 C.3     1  ZINC000790735374    0.1400
      5 C5        -10.2518   -0.0491   62.8762 C.3     1  ZINC000790735374   -0.0300
      6 H6        -10.0504    0.9173   62.4140 H       1  ZINC000790735374    0.1100
      7 S7         -9.0047   -1.2466   62.3299 S.3     1  ZINC000790735374   -0.2400
      8 C8         -9.5527   -1.5572   60.6217 C.3     1  ZINC000790735374   -0.0800
      9 C9        -10.9273   -2.2063   60.6867 C.3     1  ZINC000790735374   -0.0800
     10 C10       -11.9180   -1.4336   61.5101 C.ar    1  ZINC000790735374   -0.0700
     11 C11       -13.2574   -1.7210   61.2260 C.ar    1  ZINC000790735374   -0.1200
     12 C12       -14.2839   -1.1082   61.9052 C.ar    1  ZINC000790735374   -0.1100
     13 C13       -13.9918   -0.1878   62.8947 C.ar    1  ZINC000790735374   -0.1200
     14 C14       -12.6765    0.1040   63.1751 C.ar    1  ZINC000790735374   -0.1100
     15 C15       -11.6315   -0.5138   62.4803 C.ar    1  ZINC000790735374   -0.0800
     16 C16        -7.0957   -0.3087   66.6248 C.3     1  ZINC000790735374    0.0300
     17 H17        -6.8621   -1.3726   66.5836 H       1  ZINC000790735374    0.1500
     18 C18        -6.0794    0.5139   65.7974 C.3     1  ZINC000790735374   -0.1400
     19 C19        -5.9026    1.7629   66.6399 C.2     1  ZINC000790735374    0.1200
     20 C20        -5.2948    3.0310   66.1900 C.ar    1  ZINC000790735374   -0.1000
     21 C21        -4.8227    3.1685   64.8792 C.ar    1  ZINC000790735374   -0.0400
     22 C22        -4.2621    4.3780   64.5076 C.ar    1  ZINC000790735374   -0.1700
     23 C23        -4.1868    5.4024   65.4337 C.ar    1  ZINC000790735374    0.1200
     24 N24        -4.6400    5.2446   66.6627 N.ar    1  ZINC000790735374   -0.4800
     25 C25        -5.1865    4.1154   67.0628 C.ar    1  ZINC000790735374    0.1400
     26 N26        -6.3748    1.5265   67.8178 N.2     1  ZINC000790735374   -0.2700
     27 O27        -6.8868    0.2145   67.9522 O.3     1  ZINC000790735374   -0.1600
     28 H28        -8.1271   -0.4002   64.2096 H       1  ZINC000790735374    0.4100
     29 H29       -10.8570   -0.6268   64.8614 H       1  ZINC000790735374    0.0800
     30 H30       -10.4806    1.1035   64.6818 H       1  ZINC000790735374    0.0900
     31 H31        -9.6144   -0.6154   60.0765 H       1  ZINC000790735374    0.0900
     32 H32        -8.8510   -2.2272   60.1248 H       1  ZINC000790735374    0.1100
     33 H33       -11.3158   -2.3025   59.6729 H       1  ZINC000790735374    0.0900
     34 H34       -10.8221   -3.2039   61.1130 H       1  ZINC000790735374    0.0900
     35 H35       -13.4905   -2.4407   60.4551 H       1  ZINC000790735374    0.1200
     36 H36       -15.3106   -1.3437   61.6673 H       1  ZINC000790735374    0.1300
     37 H37       -14.7872    0.2971   63.4412 H       1  ZINC000790735374    0.1300
     38 H38       -12.4471    0.8220   63.9484 H       1  ZINC000790735374    0.1300
     39 H39        -5.1359   -0.0230   65.6987 H       1  ZINC000790735374    0.1200
     40 H40        -6.4886    0.7625   64.8182 H       1  ZINC000790735374    0.1100
     41 H41        -4.8937    2.3517   64.1763 H       1  ZINC000790735374    0.1500
     42 H42        -3.8869    4.5204   63.5049 H       1  ZINC000790735374    0.1500
     43 H43        -3.7494    6.3472   65.1463 H       1  ZINC000790735374    0.1600
     44 H44        -5.5464    4.0244   68.0769 H       1  ZINC000790735374    0.1600
@<TRIPOS>BOND
     1     1     2    2
     2     2     3   am
     3     2    16    1
     4     3     4    1
     5     3    28    1
     6     4     5    1
     7     4    29    1
     8     4    30    1
     9     5     6    1
    10     5    15    1
    11     5     7    1
    12     7     8    1
    13     8     9    1
    14     8    31    1
    15     8    32    1
    16     9    10    1
    17     9    33    1
    18     9    34    1
    19    10    15   ar
    20    10    11   ar
    21    11    12   ar
    22    11    35    1
    23    12    13   ar
    24    12    36    1
    25    13    14   ar
    26    13    37    1
    27    14    15   ar
    28    14    38    1
    29    16    17    1
    30    16    27    1
    31    16    18    1
    32    18    19    1
    33    18    39    1
    34    18    40    1
    35    19    20    1
    36    19    26    2
    37    20    25   ar
    38    20    21   ar
    39    21    22   ar
    40    21    41    1
    41    22    23   ar
    42    22    42    1
    43    23    24   ar
    44    23    43    1
    45    24    25   ar
    46    25    44    1
    47    26    27    1
@<TRIPOS>SUBSTRUCTURE
     1 ZINC000790735374        1 TEMP              0 ****  ****    0 ROOT


##########                                Name:    ZINC000512239524
##########                DOCK_Rotatable_Bonds:                   9
##########                         Heavy_Atoms:                  31
##########                    Molecular_Weight:             424.518
##########                DOCK_Rotatable_Bonds:                   9
##########                       Formal_Charge:          0.00999919
##########                     HBond_Acceptors:                   7
##########                        HBond_Donors:                   1
##########                         Heavy_Atoms:                  31
##########                          Grid_Score:          -29.701210
##########                     Grid_vdw_energy:          -27.832298
##########                      Grid_es_energy:           -1.868911
##########           Internal_energy_repulsive:           34.719952

@<TRIPOS>MOLECULE
ZINC000512239524
 60 63 1 0 0
SMALL
USER_CHARGES


@<TRIPOS>ATOM
      1 C1         -2.3751    0.9539   49.4212 C.3     1  ZINC000512239524   -0.1600
      2 C2         -1.1419    1.2502   48.5654 C.3     1  ZINC000512239524    0.2000
      3 H3         -1.1779    2.2840   48.2220 H       1  ZINC000512239524    0.1100
      4 N4          0.0683    1.0429   49.3645 N.am    1  ZINC000512239524   -0.7400
      5 C5          1.1215    1.8713   49.2199 C.2     1  ZINC000512239524    0.7100
      6 O6          1.0672    2.7908   48.4262 O.2     1  ZINC000512239524   -0.5800
      7 N7          2.2348    1.6805   49.9551 N.am    1  ZINC000512239524   -0.6300
      8 C8          3.3888    2.5787   49.8129 C.3     1  ZINC000512239524    0.1300
      9 C9          3.7681    3.1169   51.1962 C.3     1  ZINC000512239524   -0.1100
     10 C10         3.9994    1.9426   52.1501 C.3     1  ZINC000512239524   -0.1000
     11 C11         4.4059    2.4674   53.5030 C.2     1  ZINC000512239524    0.5300
     12 O12         4.0824    3.5862   53.8417 O.2     1  ZINC000512239524   -0.5300
     13 N13         5.1289    1.6935   54.3366 N.am    1  ZINC000512239524   -0.5800
     14 C14         5.5226    2.2031   55.6525 C.3     1  ZINC000512239524    0.1500
     15 C15         4.2892    2.4920   56.4689 C.ar    1  ZINC000512239524   -0.1100
     16 C16         3.6997    3.7411   56.4120 C.ar    1  ZINC000512239524   -0.0900
     17 C17         2.5683    4.0060   57.1608 C.ar    1  ZINC000512239524   -0.1200
     18 C18         2.0263    3.0219   57.9661 C.ar    1  ZINC000512239524   -0.1100
     19 C19         2.6153    1.7726   58.0223 C.ar    1  ZINC000512239524   -0.1200
     20 C20         3.7441    1.5062   57.2702 C.ar    1  ZINC000512239524   -0.1100
     21 C21         5.5211    0.3428   53.9268 C.3     1  ZINC000512239524    0.0700
     22 C22         6.7480    0.2072   53.0229 C.3     1  ZINC000512239524   -0.1900
     23 C23         6.8292   -0.2148   54.4912 C.3     1  ZINC000512239524   -0.2000
     24 C24         2.7090    1.1309   52.2848 C.3     1  ZINC000512239524   -0.1400
     25 C25         2.3154    0.5739   50.9183 C.3     1  ZINC000512239524    0.1100
     26 C26        -1.1227    0.3259   47.3753 C.ar    1  ZINC000512239524   -0.0800
     27 C27        -1.0452   -1.0474   47.5447 C.ar    1  ZINC000512239524   -0.1400
     28 C28        -1.0302   -1.8643   46.4296 C.ar    1  ZINC000512239524    0.1000
     29 N29        -1.0879   -1.3521   45.2161 N.ar    1  ZINC000512239524   -0.4600
     30 C30        -1.1623   -0.0510   45.0149 C.ar    1  ZINC000512239524    0.0800
     31 C31        -1.1877    0.8295   46.0826 C.ar    1  ZINC000512239524    0.0600
     32 F32        -1.2640    2.1614   45.8699 F       1  ZINC000512239524   -0.1200
     33 H33        -2.3891    1.6225   50.2820 H       1  ZINC000512239524    0.0700
     34 H34        -3.2756    1.1083   48.8267 H       1  ZINC000512239524    0.0700
     35 H35        -2.3392   -0.0799   49.7646 H       1  ZINC000512239524    0.0600
     36 H36         0.1116    0.3093   49.9978 H       1  ZINC000512239524    0.3900
     37 H37         4.2302    2.0288   49.3914 H       1  ZINC000512239524    0.0700
     38 H38         3.1269    3.4090   49.1571 H       1  ZINC000512239524    0.1000
     39 H39         4.6807    3.7080   51.1189 H       1  ZINC000512239524    0.0900
     40 H40         2.9605    3.7417   51.5774 H       1  ZINC000512239524    0.0800
     41 H41         4.7901    1.3045   51.7555 H       1  ZINC000512239524    0.1000
     42 H42         6.1303    1.4568   56.1642 H       1  ZINC000512239524    0.0900
     43 H43         6.0997    3.1195   55.5294 H       1  ZINC000512239524    0.1000
     44 H44         4.1231    4.5099   55.7828 H       1  ZINC000512239524    0.1300
     45 H45         2.1081    4.9820   57.1169 H       1  ZINC000512239524    0.1200
     46 H46         1.1427    3.2292   58.5517 H       1  ZINC000512239524    0.1200
     47 H47         2.1920    1.0038   58.6517 H       1  ZINC000512239524    0.1200
     48 H48         4.2044    0.5302   57.3141 H       1  ZINC000512239524    0.1200
     49 H49         4.7009   -0.3580   53.7712 H       1  ZINC000512239524    0.1300
     50 H50         6.7351   -0.5830   52.2722 H       1  ZINC000512239524    0.1100
     51 H51         7.2633    1.1228   52.7331 H       1  ZINC000512239524    0.1000
     52 H52         7.3981    0.4233   55.1675 H       1  ZINC000512239524    0.1100
     53 H53         6.8699   -1.2825   54.7066 H       1  ZINC000512239524    0.1000
     54 H54         2.8677    0.3084   52.9823 H       1  ZINC000512239524    0.0900
     55 H55         1.9113    1.7745   52.6558 H       1  ZINC000512239524    0.0700
     56 H56         1.3468    0.0794   50.9905 H       1  ZINC000512239524    0.0800
     57 H57         3.0684   -0.1397   50.5838 H       1  ZINC000512239524    0.0800
     58 H58        -0.9969   -1.4742   48.5356 H       1  ZINC000512239524    0.1400
     59 H59        -0.9700   -2.9355   46.5540 H       1  ZINC000512239524    0.1700
     60 H60        -1.2076    0.3316   44.0060 H       1  ZINC000512239524    0.1700
@<TRIPOS>BOND
     1     1     2    1
     2     1    33    1
     3     1    34    1
     4     1    35    1
     5     2     3    1
     6     2     4    1
     7     2    26    1
     8     4     5   am
     9     4    36    1
    10     5     6    2
    11     5     7   am
    12     7    25    1
    13     7     8    1
    14     8     9    1
    15     8    37    1
    16     8    38    1
    17     9    10    1
    18     9    39    1
    19     9    40    1
    20    10    11    1
    21    10    24    1
    22    10    41    1
    23    11    12    2
    24    11    13   am
    25    13    14    1
    26    13    21    1
    27    14    15    1
    28    14    42    1
    29    14    43    1
    30    15    20   ar
    31    15    16   ar
    32    16    17   ar
    33    16    44    1
    34    17    18   ar
    35    17    45    1
    36    18    19   ar
    37    18    46    1
    38    19    20   ar
    39    19    47    1
    40    20    48    1
    41    21    23    1
    42    21    22    1
    43    21    49    1
    44    22    23    1
    45    22    50    1
    46    22    51    1
    47    23    52    1
    48    23    53    1
    49    24    25    1
    50    24    54    1
    51    24    55    1
    52    25    56    1
    53    25    57    1
    54    26    31   ar
    55    26    27   ar
    56    27    28   ar
    57    27    58    1
    58    28    29   ar
    59    28    59    1
    60    29    30   ar
    61    30    31   ar
    62    30    60    1
    63    31    32    1
@<TRIPOS>SUBSTRUCTURE
     1 ZINC000512239524        1 TEMP              0 ****  ****    0 ROOT


##########                                Name:     oleObject70.pdb
##########                DOCK_Rotatable_Bonds:                   9
##########                         Heavy_Atoms:                  35
##########                    Molecular_Weight:             504.458
##########                DOCK_Rotatable_Bonds:                   9
##########                       Formal_Charge:          0.00010002
##########                     HBond_Acceptors:                   6
##########                        HBond_Donors:                   2
##########                         Heavy_Atoms:                  35
##########                          Grid_Score:          -29.698895
##########                     Grid_vdw_energy:          -28.802683
##########                      Grid_es_energy:           -0.896212
##########           Internal_energy_repulsive:           12.228547

@<TRIPOS>MOLECULE
oleObject70.pdb
 62 65 1 0 0
SMALL
NO_CHARGES


@<TRIPOS>ATOM
      1 C           5.2567    0.0562   58.4111 C.ar    1  UNL        -0.0620
      2 C           3.9775    0.6023   58.5881 C.ar    1  UNL        -0.0590
      3 C           3.5521    1.7038   57.8204 C.ar    1  UNL        -0.0456
      4 C           4.4224    2.2620   56.8495 C.ar    1  UNL        -0.0187
      5 C           5.7126    1.7099   56.6942 C.ar    1  UNL        -0.0565
      6 C           6.1268    0.6143   57.4659 C.ar    1  UNL        -0.0619
      7 C           3.9923    3.4656   55.9919 C.3     1  UNL         0.0909
      8 C           5.0718    4.5533   55.8556 C.ar    1  UNL         0.0681
      9 C           5.3404    5.4743   56.8999 C.ar    1  UNL        -0.0272
     10 C           6.3409    6.4437   56.6970 C.ar    1  UNL        -0.0559
     11 C           7.0369    6.4641   55.4799 C.ar    1  UNL        -0.0435
     12 C           6.7114    5.5108   54.5040 C.ar    1  UNL         0.0272
     13 N           5.7571    4.5799   54.6886 N.ar    1  UNL        -0.2587
     14 C           4.5822    5.4518   58.2226 C.3     1  UNL        -0.0379
     15 N           3.3535    3.0642   54.7191 N.am    1  UNL        -0.2987
     16 C           2.3800    3.7682   54.0211 C.2     1  UNL         0.2437
     17 O           1.9433    4.8406   54.4023 O.2     1  UNL        -0.2719
     18 C           1.8900    3.1371   52.7397 C.ar    1  UNL         0.0371
     19 C           2.3893    1.9005   52.2720 C.ar    1  UNL        -0.0494
     20 C           1.9097    1.3412   51.0761 C.ar    1  UNL        -0.0570
     21 C           0.9249    2.0036   50.3247 C.ar    1  UNL        -0.0341
     22 C           0.4214    3.2321   50.7834 C.ar    1  UNL        -0.0570
     23 C           0.9005    3.7931   51.9784 C.ar    1  UNL        -0.0494
     24 C           0.4033    1.3921   49.0353 C.3     1  UNL         0.0208
     25 N          -0.9933    1.7731   48.7897 N.4     1  UNL        -0.3086
     26 C          -1.5418    1.2388   47.5362 C.3     1  UNL         0.0223
     27 C          -0.8142    1.8027   46.3232 C.ar    1  UNL        -0.0154
     28 C          -0.3809    3.1424   46.3402 C.ar    1  UNL        -0.0548
     29 C           0.2966    3.6866   45.2368 C.ar    1  UNL        -0.0431
     30 C           0.5473    2.8921   44.1074 C.ar    1  UNL         0.0421
     31 C           0.1227    1.5545   44.0812 C.ar    1  UNL        -0.0245
     32 C          -0.5554    1.0087   45.1845 C.ar    1  UNL         0.0465
     33 CL         -1.0580   -0.6704   45.1075 Cl      1  UNL        -0.0839
     34 CL          1.3927    3.5689   42.7318 Cl      1  UNL        -0.0843
     35 C           2.1601    2.2731   58.0765 C.3     1  UNL        -0.0394
     36 H           5.5759   -0.7905   59.0119 H       1  UNL         0.0623
     37 H           3.3157    0.1687   59.3327 H       1  UNL         0.0626
     38 H           6.4098    2.1343   55.9794 H       1  UNL         0.0627
     39 H           7.1232    0.2028   57.3337 H       1  UNL         0.0623
     40 H           3.1747    3.9415   56.5414 H       1  UNL         0.0624
     41 H           6.5748    7.1716   57.4687 H       1  UNL         0.0627
     42 H           7.8118    7.2022   55.2958 H       1  UNL         0.0639
     43 H           7.2275    5.4916   53.5451 H       1  UNL         0.0840
     44 H           3.5218    5.6890   58.0742 H       1  UNL         0.0280
     45 H           4.9845    6.1876   58.9300 H       1  UNL         0.0280
     46 H           4.6495    4.4687   58.7040 H       1  UNL         0.0280
     47 H           3.6507    2.1847   54.3200 H       1  UNL         0.1508
     48 H           3.1504    1.3591   52.8244 H       1  UNL         0.0631
     49 H           2.3021    0.3875   50.7338 H       1  UNL         0.0626
     50 H          -0.3445    3.7530   50.2155 H       1  UNL         0.0626
     51 H           0.4947    4.7440   52.3125 H       1  UNL         0.0631
     52 H           0.4850    0.2990   49.0966 H       1  UNL         0.0479
     53 H           1.0313    1.7252   48.1987 H       1  UNL         0.0479
     54 H          -1.0636    2.7905   48.7770 H       1  UNL         0.1229
     55 H          -2.6084    1.4891   47.4672 H       1  UNL         0.0480
     56 H          -1.4648    0.1439   47.5300 H       1  UNL         0.0480
     57 H          -0.5667    3.7630   47.2124 H       1  UNL         0.0627
     58 H           0.6275    4.7211   45.2593 H       1  UNL         0.0639
     59 H           0.3205    0.9403   43.2074 H       1  UNL         0.0654
     60 H           1.6907    1.8166   58.9571 H       1  UNL         0.0280
     61 H           1.4971    2.0927   57.2213 H       1  UNL         0.0280
     62 H           2.2003    3.3547   58.2565 H       1  UNL         0.0280
@<TRIPOS>BOND
     1     1     2   ar
     2     1     6   ar
     3     1    36    1
     4     2     3   ar
     5     2    37    1
     6     3     4   ar
     7     3    35    1
     8     4     5   ar
     9     4     7    1
    10     5     6   ar
    11     5    38    1
    12     6    39    1
    13     7     8    1
    14     7    15    1
    15     7    40    1
    16     8     9   ar
    17     8    13   ar
    18     9    10   ar
    19     9    14    1
    20    10    11   ar
    21    10    41    1
    22    11    12   ar
    23    11    42    1
    24    12    13   ar
    25    12    43    1
    26    14    44    1
    27    14    45    1
    28    14    46    1
    29    15    16   am
    30    15    47    1
    31    16    17    2
    32    16    18    1
    33    18    19   ar
    34    18    23   ar
    35    19    20   ar
    36    19    48    1
    37    20    21   ar
    38    20    49    1
    39    21    22   ar
    40    21    24    1
    41    22    23   ar
    42    22    50    1
    43    23    51    1
    44    24    25    1
    45    24    52    1
    46    24    53    1
    47    25    26    1
    48    25    54    1
    49    26    27    1
    50    26    55    1
    51    26    56    1
    52    27    28   ar
    53    27    32   ar
    54    28    29   ar
    55    28    57    1
    56    29    30   ar
    57    29    58    1
    58    30    31   ar
    59    30    34    1
    60    31    32   ar
    61    31    59    1
    62    32    33    1
    63    35    60    1
    64    35    61    1
    65    35    62    1
@<TRIPOS>SUBSTRUCTURE
     1 UNL         1 TEMP              0 ****  ****    0 ROOT


##########                                Name:    ZINC000494558165
##########                DOCK_Rotatable_Bonds:                  11
##########                         Heavy_Atoms:                  28
##########                    Molecular_Weight:             409.506
##########                DOCK_Rotatable_Bonds:                  11
##########                       Formal_Charge:        -6.55651e-07
##########                     HBond_Acceptors:                   9
##########                        HBond_Donors:                   3
##########                         Heavy_Atoms:                  28
##########                          Grid_Score:          -29.697985
##########                     Grid_vdw_energy:          -28.709297
##########                      Grid_es_energy:           -0.988688
##########           Internal_energy_repulsive:           30.922739

@<TRIPOS>MOLECULE
ZINC000494558165
 55 57 1 0 0
SMALL
USER_CHARGES


@<TRIPOS>ATOM
      1 O1        -11.4105    0.6296   57.8810 O.2     1  ZINC000494558165   -0.4400
      2 C2        -10.4044    0.6356   58.5574 C.2     1  ZINC000494558165    0.5100
      3 C3        -10.4152    0.0127   59.9295 C.3     1  ZINC000494558165    0.0300
      4 N4        -10.8951   -1.3725   59.8346 N.3     1  ZINC000494558165   -0.5000
      5 C5         -9.8785   -2.2414   59.2266 C.3     1  ZINC000494558165    0.0500
      6 C6        -10.5609   -3.2676   58.3200 C.3     1  ZINC000494558165   -0.1100
      7 C7        -10.4874   -4.6508   58.9697 C.3     1  ZINC000494558165    0.0800
      8 O8        -11.2660   -5.5765   58.2089 O.3     1  ZINC000494558165   -0.5700
      9 C9        -11.3020   -1.8800   61.1518 C.3     1  ZINC000494558165    0.1200
     10 H10       -10.9761   -2.9128   61.2756 H       1  ZINC000494558165    0.1000
     11 C11       -12.8334   -1.7784   61.3152 C.3     1  ZINC000494558165   -0.1200
     12 C12       -13.0038   -0.4016   61.9920 C.3     1  ZINC000494558165   -0.0900
     13 C13       -11.7059   -0.1611   62.7327 C.ar    1  ZINC000494558165   -0.0900
     14 C14       -11.4042    0.7305   63.7481 C.ar    1  ZINC000494558165   -0.1100
     15 C15       -10.1298    0.7735   64.2797 C.ar    1  ZINC000494558165   -0.1100
     16 C16        -9.1522   -0.0759   63.7971 C.ar    1  ZINC000494558165   -0.1200
     17 C17        -9.4513   -0.9662   62.7840 C.ar    1  ZINC000494558165   -0.1000
     18 C18       -10.7257   -1.0122   62.2500 C.ar    1  ZINC000494558165   -0.1300
     19 N19        -9.2748    1.1945   58.0799 N.am    1  ZINC000494558165   -0.6900
     20 C20        -9.2651    1.7516   56.8526 C.2     1  ZINC000494558165    0.7000
     21 O21       -10.2747    1.7487   56.1759 O.2     1  ZINC000494558165   -0.5200
     22 N22        -8.1359    2.3119   56.3758 N.am    1  ZINC000494558165   -0.7300
     23 C23        -8.1258    2.9190   55.0426 C.3     1  ZINC000494558165    0.1700
     24 H24        -8.8851    3.6993   54.9896 H       1  ZINC000494558165    0.1200
     25 C25        -6.7401    3.5258   54.7608 C.3     1  ZINC000494558165   -0.1400
     26 C26        -6.6953    3.8444   53.2440 C.3     1  ZINC000494558165   -0.5800
     27 S27        -7.4749    2.3609   52.5018 S.o2    1  ZINC000494558165    2.4000
     28 O28        -8.3798    2.7643   51.4831 O.2     1  ZINC000494558165   -0.9300
     29 O29        -6.4725    1.3951   52.2163 O.2     1  ZINC000494558165   -0.9300
     30 C30        -8.4157    1.8406   53.9797 C.3     1  ZINC000494558165   -0.6200
     31 H31        -9.4054    0.0201   60.3399 H       1  ZINC000494558165    0.0700
     32 H32       -11.0767    0.5825   60.5821 H       1  ZINC000494558165    0.1200
     33 H33        -9.1895   -1.6369   58.6370 H       1  ZINC000494558165    0.0900
     34 H34        -9.3271   -2.7595   60.0113 H       1  ZINC000494558165    0.0400
     35 H35       -11.6049   -2.9885   58.1767 H       1  ZINC000494558165    0.0700
     36 H36       -10.0556   -3.2923   57.3546 H       1  ZINC000494558165    0.0800
     37 H37        -9.4501   -4.9848   58.9970 H       1  ZINC000494558165    0.0500
     38 H38       -10.8784   -4.5962   59.9857 H       1  ZINC000494558165    0.0400
     39 H39       -11.0091   -5.6351   57.2785 H       1  ZINC000494558165    0.3800
     40 H40       -13.3287   -1.7967   60.3444 H       1  ZINC000494558165    0.0900
     41 H41       -13.2082   -2.5750   61.9578 H       1  ZINC000494558165    0.0800
     42 H42       -13.1595    0.3724   61.2406 H       1  ZINC000494558165    0.0800
     43 H43       -13.8396   -0.4248   62.6911 H       1  ZINC000494558165    0.0800
     44 H44       -12.1675    1.3948   64.1256 H       1  ZINC000494558165    0.1200
     45 H45        -9.8979    1.4699   65.0720 H       1  ZINC000494558165    0.1300
     46 H46        -8.1553   -0.0433   64.2113 H       1  ZINC000494558165    0.1200
     47 H47        -8.6867   -1.6293   62.4071 H       1  ZINC000494558165    0.1200
     48 H48        -8.4687    1.1958   58.6194 H       1  ZINC000494558165    0.4100
     49 H49        -7.3298    2.3132   56.9154 H       1  ZINC000494558165    0.4000
     50 H50        -6.6087    4.4408   55.3385 H       1  ZINC000494558165    0.1100
     51 H51        -5.9598    2.8082   55.0147 H       1  ZINC000494558165    0.0900
     52 H52        -7.2754    4.7396   53.0195 H       1  ZINC000494558165    0.1400
     53 H53        -5.6663    3.9529   52.9017 H       1  ZINC000494558165    0.1400
     54 H54        -8.0709    0.8656   54.3239 H       1  ZINC000494558165    0.1500
     55 H55        -9.4823    1.8093   53.7576 H       1  ZINC000494558165    0.1500
@<TRIPOS>BOND
     1     1     2    2
     2     2     3    1
     3     2    19   am
     4     3     4    1
     5     3    31    1
     6     3    32    1
     7     4     5    1
     8     4     9    1
     9     5     6    1
    10     5    33    1
    11     5    34    1
    12     6     7    1
    13     6    35    1
    14     6    36    1
    15     7     8    1
    16     7    37    1
    17     7    38    1
    18     8    39    1
    19     9    10    1
    20     9    18    1
    21     9    11    1
    22    11    12    1
    23    11    40    1
    24    11    41    1
    25    12    13    1
    26    12    42    1
    27    12    43    1
    28    13    18   ar
    29    13    14   ar
    30    14    15   ar
    31    14    44    1
    32    15    16   ar
    33    15    45    1
    34    16    17   ar
    35    16    46    1
    36    17    18   ar
    37    17    47    1
    38    19    20   am
    39    19    48    1
    40    20    21    2
    41    20    22   am
    42    22    23    1
    43    22    49    1
    44    23    24    1
    45    23    30    1
    46    23    25    1
    47    25    26    1
    48    25    50    1
    49    25    51    1
    50    26    27    1
    51    26    52    1
    52    26    53    1
    53    27    28    2
    54    27    29    2
    55    27    30    1
    56    30    54    1
    57    30    55    1
@<TRIPOS>SUBSTRUCTURE
     1 ZINC000494558165        1 TEMP              0 ****  ****    0 ROOT


##########                                Name:    ZINC000020646552
##########                DOCK_Rotatable_Bonds:                   5
##########                         Heavy_Atoms:                  29
##########                    Molecular_Weight:             412.556
##########                DOCK_Rotatable_Bonds:                   5
##########                       Formal_Charge:          -0.0200012
##########                     HBond_Acceptors:                   7
##########                        HBond_Donors:                   0
##########                         Heavy_Atoms:                  29
##########                          Grid_Score:          -29.688288
##########                     Grid_vdw_energy:          -30.720181
##########                      Grid_es_energy:            1.031893
##########           Internal_energy_repulsive:           12.198735

@<TRIPOS>MOLECULE
ZINC000020646552
 57 60 1 0 0
SMALL
USER_CHARGES


@<TRIPOS>ATOM
      1 C1        -16.1446   -3.6517   54.8010 C.3     1  ZINC000020646552    0.0200
      2 N2        -15.4362   -3.9943   56.0415 N.3     1  ZINC000020646552   -0.5400
      3 C3        -14.5631   -2.8936   56.4704 C.3     1  ZINC000020646552    0.0400
      4 C4        -13.9848   -3.2136   57.8529 C.3     1  ZINC000020646552    0.1200
      5 N5        -13.3386   -4.5336   57.7950 N.am    1  ZINC000020646552   -0.6100
      6 C6        -12.0755   -4.7053   58.2329 C.2     1  ZINC000020646552    0.5300
      7 O7        -11.5577   -5.8004   58.1761 O.2     1  ZINC000020646552   -0.5200
      8 C8        -11.3068   -3.5363   58.7928 C.3     1  ZINC000020646552   -0.1500
      9 S9        -10.6747   -2.5229   57.4328 S.3     1  ZINC000020646552    0.0500
     10 C10       -10.3600   -1.0179   58.2933 C.ar    1  ZINC000020646552    0.1500
     11 N11       -10.2857   -1.0023   59.6198 N.ar    1  ZINC000020646552   -0.5200
     12 C12       -10.0492    0.1299   60.2677 C.ar    1  ZINC000020646552    0.3800
     13 C13        -9.9696    0.1125   61.7488 C.ar    1  ZINC000020646552   -0.0500
     14 C14        -9.4679   -1.0076   62.4091 C.ar    1  ZINC000020646552   -0.0700
     15 C15        -9.3956   -1.0180   63.7873 C.ar    1  ZINC000020646552   -0.1300
     16 C16        -9.8200    0.0804   64.5130 C.ar    1  ZINC000020646552   -0.1000
     17 C17       -10.3194    1.1947   63.8630 C.ar    1  ZINC000020646552   -0.1300
     18 C18       -10.3909    1.2185   62.4849 C.ar    1  ZINC000020646552   -0.0700
     19 N19        -9.8818    1.2766   59.6253 N.ar    1  ZINC000020646552   -0.5200
     20 C20        -9.9442    1.3328   58.3008 C.ar    1  ZINC000020646552    0.2100
     21 C21       -10.1789    0.1784   57.5896 C.ar    1  ZINC000020646552   -0.2100
     22 C22       -10.2488    0.1736   56.0875 C.3     1  ZINC000020646552    0.1100
     23 O23       -10.4135    1.5051   55.5979 O.3     1  ZINC000020646552   -0.3600
     24 C24        -9.4508    2.4239   56.1266 C.3     1  ZINC000020646552    0.1100
     25 C25        -8.0458    1.8356   55.9819 C.3     1  ZINC000020646552   -0.1800
     26 C26        -9.5337    3.7489   55.3660 C.3     1  ZINC000020646552   -0.1400
     27 C27        -9.7545    2.6557   57.6068 C.3     1  ZINC000020646552   -0.0900
     28 C28       -14.1075   -5.6613   57.2468 C.3     1  ZINC000020646552    0.1100
     29 C29       -14.6809   -5.2448   55.8882 C.3     1  ZINC000020646552    0.0400
     30 H30       -16.8403   -4.4513   54.5472 H       1  ZINC000020646552    0.0700
     31 H31       -16.6956   -2.7218   54.9422 H       1  ZINC000020646552    0.0700
     32 H32       -15.4234   -3.5276   53.9932 H       1  ZINC000020646552    0.0300
     33 H33       -13.7496   -2.7745   55.7546 H       1  ZINC000020646552    0.0400
     34 H34       -15.1403   -1.9704   56.5223 H       1  ZINC000020646552    0.0900
     35 H35       -13.2490   -2.4573   58.1261 H       1  ZINC000020646552    0.1000
     36 H36       -14.7872   -3.2308   58.5904 H       1  ZINC000020646552    0.0800
     37 H37       -11.9655   -2.9344   59.4187 H       1  ZINC000020646552    0.1300
     38 H38       -10.4724   -3.9031   59.3908 H       1  ZINC000020646552    0.1200
     39 H39        -9.1365   -1.8658   61.8435 H       1  ZINC000020646552    0.1400
     40 H40        -9.0073   -1.8856   64.3001 H       1  ZINC000020646552    0.1300
     41 H41        -9.7617    0.0679   65.5914 H       1  ZINC000020646552    0.1300
     42 H42       -10.6497    2.0493   64.4347 H       1  ZINC000020646552    0.1300
     43 H43       -10.7809    2.0889   61.9783 H       1  ZINC000020646552    0.1300
     44 H44        -9.3282   -0.2482   55.6844 H       1  ZINC000020646552    0.0800
     45 H45       -11.0936   -0.4362   55.7671 H       1  ZINC000020646552    0.1100
     46 H46        -7.8340    1.6558   54.9279 H       1  ZINC000020646552    0.0700
     47 H47        -7.3150    2.5368   56.3849 H       1  ZINC000020646552    0.0700
     48 H48        -7.9876    0.8951   56.5298 H       1  ZINC000020646552    0.0600
     49 H49       -10.5335    4.1690   55.4760 H       1  ZINC000020646552    0.0700
     50 H50        -8.8001    4.4463   55.7703 H       1  ZINC000020646552    0.0800
     51 H51        -9.3267    3.5753   54.3100 H       1  ZINC000020646552    0.0700
     52 H52       -10.6680    3.2428   57.7019 H       1  ZINC000020646552    0.1000
     53 H53        -8.9271    3.1963   58.0665 H       1  ZINC000020646552    0.1000
     54 H54       -13.4526   -6.5232   57.1193 H       1  ZINC000020646552    0.0900
     55 H55       -14.9217   -5.9139   57.9260 H       1  ZINC000020646552    0.0800
     56 H56       -15.3436   -6.0270   55.5179 H       1  ZINC000020646552    0.0900
     57 H57       -13.8658   -5.0931   55.1805 H       1  ZINC000020646552    0.0400
@<TRIPOS>BOND
     1     1     2    1
     2     1    30    1
     3     1    31    1
     4     1    32    1
     5     2    29    1
     6     2     3    1
     7     3     4    1
     8     3    33    1
     9     3    34    1
    10     4     5    1
    11     4    35    1
    12     4    36    1
    13     5     6   am
    14     5    28    1
    15     6     7    2
    16     6     8    1
    17     8     9    1
    18     8    37    1
    19     8    38    1
    20     9    10    1
    21    10    21   ar
    22    10    11   ar
    23    11    12   ar
    24    12    13    1
    25    12    19   ar
    26    13    18   ar
    27    13    14   ar
    28    14    15   ar
    29    14    39    1
    30    15    16   ar
    31    15    40    1
    32    16    17   ar
    33    16    41    1
    34    17    18   ar
    35    17    42    1
    36    18    43    1
    37    19    20   ar
    38    20    27    1
    39    20    21   ar
    40    21    22    1
    41    22    23    1
    42    22    44    1
    43    22    45    1
    44    23    24    1
    45    24    25    1
    46    24    26    1
    47    24    27    1
    48    25    46    1
    49    25    47    1
    50    25    48    1
    51    26    49    1
    52    26    50    1
    53    26    51    1
    54    27    52    1
    55    27    53    1
    56    28    29    1
    57    28    54    1
    58    28    55    1
    59    29    56    1
    60    29    57    1
@<TRIPOS>SUBSTRUCTURE
     1 ZINC000020646552        1 TEMP              0 ****  ****    0 ROOT


##########                                Name:    ZINC000854704989
##########                DOCK_Rotatable_Bonds:                   5
##########                         Heavy_Atoms:                  22
##########                    Molecular_Weight:             365.227
##########                DOCK_Rotatable_Bonds:                   5
##########                       Formal_Charge:        -1.78814e-07
##########                     HBond_Acceptors:                   5
##########                        HBond_Donors:                   1
##########                         Heavy_Atoms:                  22
##########                          Grid_Score:          -29.675264
##########                     Grid_vdw_energy:          -28.228445
##########                      Grid_es_energy:           -1.446820
##########           Internal_energy_repulsive:            5.346791

@<TRIPOS>MOLECULE
ZINC000854704989
 39 41 1 0 0
SMALL
USER_CHARGES


@<TRIPOS>ATOM
      1 O1         -9.7699    0.2662   66.4720 O.2     1  ZINC000854704989   -0.5300
      2 C2         -9.3008    0.1961   65.3528 C.2     1  ZINC000854704989    0.5700
      3 N3         -7.9748    0.3497   65.1671 N.am    1  ZINC000854704989   -0.7300
      4 C4         -7.0996    0.6074   66.3133 C.3     1  ZINC000854704989    0.2000
      5 C5         -5.8649    1.3361   65.8489 C.2     1  ZINC000854704989   -0.0500
      6 C6         -4.7347    0.7802   65.3517 C.2     1  ZINC000854704989   -0.1700
      7 C7         -3.9015    1.8896   65.0746 C.2     1  ZINC000854704989    0.0000
      8 Br8        -2.1541    1.8423   64.3532 Br      1  ZINC000854704989    0.0600
      9 N9         -4.5771    2.9501   65.4147 N.2     1  ZINC000854704989   -0.3200
     10 O10        -5.6715    2.6625   65.8411 O.3     1  ZINC000854704989    0.1300
     11 C11       -10.1840   -0.0639   64.1959 C.ar    1  ZINC000854704989   -0.1300
     12 C12       -11.5303    0.3003   64.2461 C.ar    1  ZINC000854704989   -0.0900
     13 C13       -12.3489    0.0552   63.1629 C.ar    1  ZINC000854704989   -0.1200
     14 C14       -11.8381   -0.5507   62.0291 C.ar    1  ZINC000854704989   -0.0900
     15 C15       -10.5041   -0.9144   61.9728 C.ar    1  ZINC000854704989   -0.0800
     16 C16        -9.9563   -1.5739   60.7334 C.3     1  ZINC000854704989   -0.0800
     17 H17        -8.9036   -1.8135   60.8834 H       1  ZINC000854704989    0.0900
     18 C18       -10.1001   -0.6228   59.5413 C.3     1  ZINC000854704989   -0.1100
     19 C19        -9.6122   -1.3324   58.2745 C.3     1  ZINC000854704989   -0.1600
     20 C20       -10.4084   -2.6262   58.0849 C.3     1  ZINC000854704989    0.0600
     21 O21       -10.2562   -3.4514   59.2416 O.3     1  ZINC000854704989   -0.3800
     22 C22       -10.7381   -2.8593   60.4498 C.3     1  ZINC000854704989    0.0700
     23 C23        -9.6736   -0.6698   63.0466 C.ar    1  ZINC000854704989   -0.0500
     24 H24        -7.5999    0.2898   64.2745 H       1  ZINC000854704989    0.4000
     25 H25        -7.6288    1.2185   67.0444 H       1  ZINC000854704989    0.1100
     26 H26        -6.8122   -0.3392   66.7710 H       1  ZINC000854704989    0.1000
     27 H27        -4.5190   -0.2673   65.2017 H       1  ZINC000854704989    0.1900
     28 H28       -11.9304    0.7728   65.1311 H       1  ZINC000854704989    0.1200
     29 H29       -13.3909    0.3367   63.2005 H       1  ZINC000854704989    0.1300
     30 H30       -12.4833   -0.7409   61.1841 H       1  ZINC000854704989    0.1300
     31 H31       -11.1469   -0.3430   59.4224 H       1  ZINC000854704989    0.0700
     32 H32        -9.4998    0.2705   59.7130 H       1  ZINC000854704989    0.0700
     33 H33        -9.7624   -0.6827   57.4123 H       1  ZINC000854704989    0.0800
     34 H34        -8.5527   -1.5679   58.3740 H       1  ZINC000854704989    0.0700
     35 H35       -11.4626   -2.3871   57.9450 H       1  ZINC000854704989    0.0500
     36 H36       -10.0364   -3.1568   57.2084 H       1  ZINC000854704989    0.1000
     37 H37       -10.6039   -3.5578   61.2756 H       1  ZINC000854704989    0.1000
     38 H38       -11.7966   -2.6228   60.3418 H       1  ZINC000854704989    0.0500
     39 H39        -8.6325   -0.9538   63.0013 H       1  ZINC000854704989    0.1400
@<TRIPOS>BOND
     1     1     2    2
     2     2     3   am
     3     2    11    1
     4     3     4    1
     5     3    24    1
     6     4     5    1
     7     4    25    1
     8     4    26    1
     9     5    10    1
    10     5     6    2
    11     6     7    1
    12     6    27    1
    13     7     8    1
    14     7     9    2
    15     9    10    1
    16    11    23   ar
    17    11    12   ar
    18    12    13   ar
    19    12    28    1
    20    13    14   ar
    21    13    29    1
    22    14    15   ar
    23    14    30    1
    24    15    16    1
    25    15    23   ar
    26    16    17    1
    27    16    22    1
    28    16    18    1
    29    18    19    1
    30    18    31    1
    31    18    32    1
    32    19    20    1
    33    19    33    1
    34    19    34    1
    35    20    21    1
    36    20    35    1
    37    20    36    1
    38    21    22    1
    39    22    37    1
    40    22    38    1
    41    23    39    1
@<TRIPOS>SUBSTRUCTURE
     1 ZINC000854704989        1 TEMP              0 ****  ****    0 ROOT


##########                                Name:    ZINC000864730443
##########                DOCK_Rotatable_Bonds:                  10
##########                         Heavy_Atoms:                  25
##########                    Molecular_Weight:             356.462
##########                DOCK_Rotatable_Bonds:                  10
##########                       Formal_Charge:           0.0299988
##########                     HBond_Acceptors:                   7
##########                        HBond_Donors:                   2
##########                         Heavy_Atoms:                  25
##########                          Grid_Score:          -29.675177
##########                     Grid_vdw_energy:          -27.791563
##########                      Grid_es_energy:           -1.883614
##########           Internal_energy_repulsive:           19.371756

@<TRIPOS>MOLECULE
ZINC000864730443
 57 58 1 0 0
SMALL
USER_CHARGES


@<TRIPOS>ATOM
      1 C1        -10.9666    1.8429   66.1851 C.3     1  ZINC000864730443   -0.1800
      2 C2        -10.5932    1.1404   64.8782 C.3     1  ZINC000864730443    0.1400
      3 C3        -10.7343    2.1220   63.7132 C.3     1  ZINC000864730443   -0.1800
      4 C4         -9.1465    0.6489   64.9586 C.3     1  ZINC000864730443   -0.1400
      5 O5        -11.4779    0.0085   64.6673 O.3     1  ZINC000864730443   -0.3600
      6 C6        -12.1560   -0.0291   63.5048 C.2     1  ZINC000864730443    0.6500
      7 O7        -13.2246    0.5410   63.4062 O.2     1  ZINC000864730443   -0.5700
      8 N8        -11.6497   -0.6989   62.4507 N.am    1  ZINC000864730443   -0.7100
      9 C9        -12.3868   -0.7382   61.1851 C.3     1  ZINC000864730443    0.1500
     10 C10       -11.5771   -1.5184   60.1475 C.3     1  ZINC000864730443   -0.1300
     11 C11       -12.3970   -1.6911   58.8950 C.2     1  ZINC000864730443    0.5300
     12 O12       -12.6772   -0.7260   58.2158 O.2     1  ZINC000864730443   -0.5300
     13 N13       -12.8190   -2.9178   58.5294 N.am    1  ZINC000864730443   -0.7200
     14 C14       -13.6160   -3.0856   57.3117 C.3     1  ZINC000864730443    0.1200
     15 C15       -13.3942   -4.4899   56.7465 C.3     1  ZINC000864730443   -0.1300
     16 C16       -14.7294   -5.0640   56.2684 C.3     1  ZINC000864730443    0.0800
     17 H17       -15.4741   -4.9993   57.0617 H       1  ZINC000864730443    0.0800
     18 C18       -15.2194   -4.3080   55.0078 C.3     1  ZINC000864730443   -0.1500
     19 C19       -16.1298   -5.3833   54.3544 C.3     1  ZINC000864730443   -0.1600
     20 C20       -15.3984   -6.6944   54.7145 C.3     1  ZINC000864730443    0.0500
     21 O21       -14.5643   -6.4281   55.8497 O.3     1  ZINC000864730443   -0.3800
     22 C22       -10.2925   -0.7517   59.8185 C.3     1  ZINC000864730443   -0.1000
     23 C23        -9.4542   -1.5784   58.8388 C.3     1  ZINC000864730443   -0.1600
     24 C24        -9.1699   -2.9510   59.4546 C.3     1  ZINC000864730443    0.0600
     25 O25       -10.4059   -3.5975   59.7650 O.3     1  ZINC000864730443   -0.3700
     26 C26       -11.2109   -2.8932   60.7128 C.3     1  ZINC000864730443    0.0800
     27 H27       -11.9972    2.1931   66.1278 H       1  ZINC000864730443    0.0900
     28 H28       -10.8660    1.1437   67.0152 H       1  ZINC000864730443    0.0600
     29 H29       -10.3025    2.6926   66.3433 H       1  ZINC000864730443    0.0700
     30 H30       -10.0702    2.9717   63.8715 H       1  ZINC000864730443    0.0700
     31 H31       -10.4683    1.6214   62.7821 H       1  ZINC000864730443    0.0600
     32 H32       -11.7650    2.4721   63.6559 H       1  ZINC000864730443    0.0900
     33 H33        -9.0460   -0.0504   65.7887 H       1  ZINC000864730443    0.0700
     34 H34        -8.8805    0.1484   64.0276 H       1  ZINC000864730443    0.0700
     35 H35        -8.4824    1.4986   65.1169 H       1  ZINC000864730443    0.0800
     36 H36       -10.7973   -1.1550   62.5298 H       1  ZINC000864730443    0.4100
     37 H37       -13.3480   -1.2285   61.3396 H       1  ZINC000864730443    0.0900
     38 H38       -12.5506    0.2786   60.8284 H       1  ZINC000864730443    0.0800
     39 H39       -12.5948   -3.6896   59.0726 H       1  ZINC000864730443    0.4000
     40 H40       -14.6718   -2.9513   57.5473 H       1  ZINC000864730443    0.0700
     41 H41       -13.3115   -2.3442   56.5730 H       1  ZINC000864730443    0.0700
     42 H42       -12.6997   -4.4385   55.9079 H       1  ZINC000864730443    0.0800
     43 H43       -12.9794   -5.1327   57.5229 H       1  ZINC000864730443    0.0800
     44 H44       -15.7917   -3.4210   55.2794 H       1  ZINC000864730443    0.0900
     45 H45       -14.3852   -4.0504   54.3552 H       1  ZINC000864730443    0.0800
     46 H46       -17.1282   -5.3636   54.7911 H       1  ZINC000864730443    0.0800
     47 H47       -16.1751   -5.2486   53.2737 H       1  ZINC000864730443    0.0800
     48 H48       -16.1257   -7.4667   54.9648 H       1  ZINC000864730443    0.0700
     49 H49       -14.7867   -7.0197   53.8730 H       1  ZINC000864730443    0.0700
     50 H50       -10.5459    0.2060   59.3636 H       1  ZINC000864730443    0.0800
     51 H51        -9.7239   -0.5833   60.7331 H       1  ZINC000864730443    0.0800
     52 H52       -10.0033   -1.7044   57.9057 H       1  ZINC000864730443    0.0900
     53 H53        -8.5128   -1.0655   58.6420 H       1  ZINC000864730443    0.0800
     54 H54        -8.6099   -3.5591   58.7442 H       1  ZINC000864730443    0.1000
     55 H55        -8.5859   -2.8263   60.3664 H       1  ZINC000864730443    0.0500
     56 H56       -10.6534   -2.7679   61.6411 H       1  ZINC000864730443    0.0700
     57 H57       -12.1211   -3.4599   60.9089 H       1  ZINC000864730443    0.1000
@<TRIPOS>BOND
     1     1     2    1
     2     1    27    1
     3     1    28    1
     4     1    29    1
     5     2     3    1
     6     2     4    1
     7     2     5    1
     8     3    30    1
     9     3    31    1
    10     3    32    1
    11     4    33    1
    12     4    34    1
    13     4    35    1
    14     5     6    1
    15     6     7    2
    16     6     8   am
    17     8     9    1
    18     8    36    1
    19     9    10    1
    20     9    37    1
    21     9    38    1
    22    10    26    1
    23    10    11    1
    24    10    22    1
    25    11    12    2
    26    11    13   am
    27    13    14    1
    28    13    39    1
    29    14    15    1
    30    14    40    1
    31    14    41    1
    32    15    16    1
    33    15    42    1
    34    15    43    1
    35    16    17    1
    36    16    21    1
    37    16    18    1
    38    18    19    1
    39    18    44    1
    40    18    45    1
    41    19    20    1
    42    19    46    1
    43    19    47    1
    44    20    21    1
    45    20    48    1
    46    20    49    1
    47    22    23    1
    48    22    50    1
    49    22    51    1
    50    23    24    1
    51    23    52    1
    52    23    53    1
    53    24    25    1
    54    24    54    1
    55    24    55    1
    56    25    26    1
    57    26    56    1
    58    26    57    1
@<TRIPOS>SUBSTRUCTURE
     1 ZINC000864730443        1 TEMP              0 ****  ****    0 ROOT


##########                                Name:    ZINC000673213454
##########                DOCK_Rotatable_Bonds:                   7
##########                         Heavy_Atoms:                  26
##########                    Molecular_Weight:             360.453
##########                DOCK_Rotatable_Bonds:                   7
##########                       Formal_Charge:          -0.0100001
##########                     HBond_Acceptors:                   6
##########                        HBond_Donors:                   1
##########                         Heavy_Atoms:                  26
##########                          Grid_Score:          -29.673737
##########                     Grid_vdw_energy:          -29.133112
##########                      Grid_es_energy:           -0.540624
##########           Internal_energy_repulsive:           35.084908

@<TRIPOS>MOLECULE
ZINC000673213454
 54 56 1 0 0
SMALL
USER_CHARGES


@<TRIPOS>ATOM
      1 C1          1.7510    4.2547   49.6292 C.3     1  ZINC000673213454   -0.1700
      2 C2          0.8419    3.4961   50.5982 C.3     1  ZINC000673213454    0.1400
      3 H3         -0.0486    4.0907   50.8019 H       1  ZINC000673213454    0.0900
      4 C4          1.5929    3.2379   51.9060 C.3     1  ZINC000673213454   -0.1200
      5 C5          2.8746    2.4557   51.6121 C.3     1  ZINC000673213454   -0.1300
      6 H6          3.4651    2.9649   50.8506 H       1  ZINC000673213454    0.0800
      7 C7          2.5378    1.0132   51.1622 C.3     1  ZINC000673213454   -0.1500
      8 C8          3.6242    0.1833   51.8925 C.3     1  ZINC000673213454    0.0500
      9 O9          3.7637    0.8549   53.1630 O.3     1  ZINC000673213454   -0.3800
     10 C10         3.7002    2.2698   52.9000 C.3     1  ZINC000673213454    0.0500
     11 N11         0.4492    2.2177   50.0000 N.am    1  ZINC000673213454   -0.6900
     12 C12        -0.6970    2.1265   49.2969 C.2     1  ZINC000673213454    0.5100
     13 O13        -1.4030    3.1037   49.1580 O.2     1  ZINC000673213454   -0.5100
     14 C14        -1.0985    0.8220   48.6882 C.2     1  ZINC000673213454    0.5000
     15 O15        -1.9426    0.1357   49.2259 O.2     1  ZINC000673213454   -0.5200
     16 N16        -0.5232    0.4078   47.5419 N.am    1  ZINC000673213454   -0.5800
     17 C17        -0.9400   -0.8842   46.9651 C.3     1  ZINC000673213454    0.1100
     18 C18        -1.0865   -0.7851   45.4396 C.3     1  ZINC000673213454   -0.1700
     19 C19        -1.7238    0.5407   45.0758 C.3     1  ZINC000673213454    0.0800
     20 O20        -0.6953    1.4966   44.8536 O.3     1  ZINC000673213454   -0.3800
     21 C21        -0.1958    2.2158   45.9204 C.3     1  ZINC000673213454    0.1500
     22 H22        -1.0110    2.7411   46.4181 H       1  ZINC000673213454    0.0600
     23 C23         0.8160    3.2155   45.4224 C.ar    1  ZINC000673213454   -0.0800
     24 C24         0.7019    4.5477   45.7732 C.ar    1  ZINC000673213454   -0.0900
     25 C25         1.6300    5.4647   45.3164 C.ar    1  ZINC000673213454   -0.1300
     26 C26         2.6723    5.0494   44.5090 C.ar    1  ZINC000673213454   -0.1200
     27 C27         2.7870    3.7171   44.1588 C.ar    1  ZINC000673213454   -0.1300
     28 C28         1.8613    2.7993   44.6192 C.ar    1  ZINC000673213454   -0.0900
     29 C29         0.4788    1.2526   46.9187 C.3     1  ZINC000673213454    0.0700
     30 H30         2.6415    3.6601   49.4255 H       1  ZINC000673213454    0.0600
     31 H31         1.2159    4.4386   48.6975 H       1  ZINC000673213454    0.0600
     32 H32         2.0432    5.2058   50.0742 H       1  ZINC000673213454    0.0700
     33 H33         1.8470    4.1895   52.3729 H       1  ZINC000673213454    0.0800
     34 H34         0.9608    2.6598   52.5800 H       1  ZINC000673213454    0.0900
     35 H35         1.5401    0.7253   51.4935 H       1  ZINC000673213454    0.0800
     36 H36         2.6317    0.9111   50.0811 H       1  ZINC000673213454    0.0800
     37 H37         3.2901   -0.8443   52.0363 H       1  ZINC000673213454    0.0900
     38 H38         4.5632    0.2090   51.3396 H       1  ZINC000673213454    0.0600
     39 H39         4.7058    2.6663   52.7596 H       1  ZINC000673213454    0.0600
     40 H40         3.2114    2.7796   53.7302 H       1  ZINC000673213454    0.0900
     41 H41         1.0140    1.4369   50.1100 H       1  ZINC000673213454    0.4100
     42 H42        -0.1927   -1.6407   47.2045 H       1  ZINC000673213454    0.0800
     43 H43        -1.8963   -1.1776   47.3982 H       1  ZINC000673213454    0.0900
     44 H44        -0.1029   -0.8547   44.9752 H       1  ZINC000673213454    0.0800
     45 H45        -1.7152   -1.6004   45.0816 H       1  ZINC000673213454    0.0900
     46 H46        -2.3168    0.4244   44.1686 H       1  ZINC000673213454    0.1000
     47 H47        -2.3633    0.8752   45.8927 H       1  ZINC000673213454    0.0500
     48 H48        -0.1124    4.8722   46.4040 H       1  ZINC000673213454    0.1300
     49 H49         1.5405    6.5057   45.5899 H       1  ZINC000673213454    0.1200
     50 H50         3.3970    5.7659   44.1514 H       1  ZINC000673213454    0.1200
     51 H51         3.6011    3.3926   43.5278 H       1  ZINC000673213454    0.1200
     52 H52         1.9508    1.7584   44.3457 H       1  ZINC000673213454    0.1300
     53 H53         0.9940    1.8285   47.6874 H       1  ZINC000673213454    0.1200
     54 H54         1.1985    0.6274   46.3901 H       1  ZINC000673213454    0.0800
@<TRIPOS>BOND
     1     1     2    1
     2     1    30    1
     3     1    31    1
     4     1    32    1
     5     2     3    1
     6     2     4    1
     7     2    11    1
     8     4     5    1
     9     4    33    1
    10     4    34    1
    11     5     6    1
    12     5    10    1
    13     5     7    1
    14     7     8    1
    15     7    35    1
    16     7    36    1
    17     8     9    1
    18     8    37    1
    19     8    38    1
    20     9    10    1
    21    10    39    1
    22    10    40    1
    23    11    12   am
    24    11    41    1
    25    12    13    2
    26    12    14    1
    27    14    15    2
    28    14    16   am
    29    16    29    1
    30    16    17    1
    31    17    18    1
    32    17    42    1
    33    17    43    1
    34    18    19    1
    35    18    44    1
    36    18    45    1
    37    19    20    1
    38    19    46    1
    39    19    47    1
    40    20    21    1
    41    21    22    1
    42    21    23    1
    43    21    29    1
    44    23    28   ar
    45    23    24   ar
    46    24    25   ar
    47    24    48    1
    48    25    26   ar
    49    25    49    1
    50    26    27   ar
    51    26    50    1
    52    27    28   ar
    53    27    51    1
    54    28    52    1
    55    29    53    1
    56    29    54    1
@<TRIPOS>SUBSTRUCTURE
     1 ZINC000673213454        1 TEMP              0 ****  ****    0 ROOT


##########                                Name:    ZINC000012979878
##########                DOCK_Rotatable_Bonds:                   7
##########                         Heavy_Atoms:                  26
##########                    Molecular_Weight:             388.874
##########                DOCK_Rotatable_Bonds:                   7
##########                       Formal_Charge:          -0.0100003
##########                     HBond_Acceptors:                   7
##########                        HBond_Donors:                   1
##########                         Heavy_Atoms:                  26
##########                          Grid_Score:          -29.666286
##########                     Grid_vdw_energy:          -28.695772
##########                      Grid_es_energy:           -0.970515
##########           Internal_energy_repulsive:          168.590408

@<TRIPOS>MOLECULE
ZINC000012979878
 43 45 1 0 0
SMALL
USER_CHARGES


@<TRIPOS>ATOM
      1 C1        -17.9920   -7.4214   52.7299 C.3     1  <0>         0.0300
      2 O2        -16.8013   -7.2554   53.5025 O.3     1  <0>        -0.3100
      3 C3        -16.4560   -5.9846   53.8384 C.ar    1  <0>         0.1500
      4 C4        -17.2471   -4.9196   53.4312 C.ar    1  <0>        -0.2200
      5 C5        -16.8970   -3.6266   53.7716 C.ar    1  <0>        -0.0600
      6 C6        -15.7594   -3.3901   54.5182 C.ar    1  <0>        -0.1800
      7 C7        -14.9635   -4.4527   54.9286 C.ar    1  <0>         0.1800
      8 N8        -13.8116   -4.2133   55.6845 N.am    1  <0>        -0.6700
      9 C9        -13.4726   -2.9514   56.0151 C.2     1  <0>         0.6000
     10 O10       -14.1689   -2.0204   55.6556 O.2     1  <0>        -0.4900
     11 C11       -12.2646   -2.7004   56.8078 C.2     1  <0>        -0.3000
     12 C12       -11.3880   -1.6804   56.6288 C.2     1  <0>         0.1600
     13 C13       -11.5527   -0.6385   55.5525 C.3     1  <0>        -0.0900
     14 N14       -10.3868   -1.6792   57.4728 N.2     1  <0>        -0.4500
     15 C15       -10.3513   -2.6255   58.3551 C.2     1  <0>         0.0600
     16 C16        -9.2799   -2.7848   59.4029 C.3     1  <0>         0.1300
     17 O17        -9.8873   -3.0519   60.6685 O.3     1  <0>        -0.3000
     18 C18       -10.2259   -1.9777   61.4293 C.ar    1  <0>         0.1300
     19 C19        -9.2472   -1.2830   62.1248 C.ar    1  <0>        -0.2000
     20 C20        -9.5933   -0.1915   62.8976 C.ar    1  <0>        -0.0700
     21 C21       -10.9154    0.2087   62.9785 C.ar    1  <0>        -0.0700
     22 Cl22      -11.3479    1.5804   63.9507 Cl      1  <0>        -0.0700
     23 C23       -11.8929   -0.4827   62.2852 C.ar    1  <0>        -0.0700
     24 C24       -11.5500   -1.5712   61.5068 C.ar    1  <0>        -0.1300
     25 S25       -11.6956   -3.6650   58.1682 S.3     1  <0>         0.2000
     26 C26       -15.3165   -5.7520   54.5926 C.ar    1  <0>        -0.1500
     27 H27       -18.8426   -7.0233   53.2831 H       1  <0>         0.0600
     28 H28       -17.8900   -6.8864   51.7857 H       1  <0>         0.0600
     29 H29       -18.1515   -8.4813   52.5314 H       1  <0>         0.1000
     30 H30       -18.1373   -5.1014   52.8473 H       1  <0>         0.1300
     31 H31       -17.5140   -2.7995   53.4528 H       1  <0>         0.1300
     32 H32       -15.4880   -2.3788   54.7828 H       1  <0>         0.1300
     33 H33       -13.2565   -4.9554   55.9709 H       1  <0>         0.4100
     34 H34       -12.1380    0.1952   55.9406 H       1  <0>         0.0900
     35 H35       -10.5717   -0.2797   55.2409 H       1  <0>         0.0800
     36 H36       -12.0675   -1.0773   54.6979 H       1  <0>         0.1000
     37 H37        -8.6266   -3.6140   59.1313 H       1  <0>         0.0900
     38 H38        -8.6950   -1.8673   59.4669 H       1  <0>         0.1000
     39 H39        -8.2152   -1.5955   62.0625 H       1  <0>         0.1400
     40 H40        -8.8316    0.3496   63.4392 H       1  <0>         0.1400
     41 H41       -12.9243   -0.1686   62.3493 H       1  <0>         0.1400
     42 H42       -12.3134   -2.1106   60.9658 H       1  <0>         0.1400
     43 H43       -14.7000   -6.5796   54.9107 H       1  <0>         0.1400
@<TRIPOS>BOND
     1     1     2    1
     2     1    27    1
     3     1    28    1
     4     1    29    1
     5     2     3    1
     6     3    26   ar
     7     3     4   ar
     8     4     5   ar
     9     4    30    1
    10     5     6   ar
    11     5    31    1
    12     6     7   ar
    13     6    32    1
    14     7     8    1
    15     7    26   ar
    16     8     9   am
    17     8    33    1
    18     9    10    2
    19     9    11    1
    20    11    25    1
    21    11    12    2
    22    12    13    1
    23    12    14    1
    24    13    34    1
    25    13    35    1
    26    13    36    1
    27    14    15    2
    28    15    16    1
    29    15    25    1
    30    16    17    1
    31    16    37    1
    32    16    38    1
    33    17    18    1
    34    18    24   ar
    35    18    19   ar
    36    19    20   ar
    37    19    39    1
    38    20    21   ar
    39    20    40    1
    40    21    22    1
    41    21    23   ar
    42    23    24   ar
    43    23    41    1
    44    24    42    1
    45    26    43    1
@<TRIPOS>SUBSTRUCTURE
     1 <0>         1 TEMP              0 ****  ****    0 ROOT


##########                                Name:    ZINC001109848453
##########                DOCK_Rotatable_Bonds:                   8
##########                         Heavy_Atoms:                  24
##########                    Molecular_Weight:             328.337
##########                DOCK_Rotatable_Bonds:                   8
##########                       Formal_Charge:          0.00999966
##########                     HBond_Acceptors:                  11
##########                        HBond_Donors:                   2
##########                         Heavy_Atoms:                  24
##########                          Grid_Score:          -29.660873
##########                     Grid_vdw_energy:          -29.486925
##########                      Grid_es_energy:           -0.173948
##########           Internal_energy_repulsive:            7.864940

@<TRIPOS>MOLECULE
ZINC001109848453
 40 43 1 0 0
SMALL
USER_CHARGES


@<TRIPOS>ATOM
      1 O1         -4.2769    4.8639   51.5051 O.2     1  ZINC001109848453   -0.5000
      2 C2         -4.2421    3.8123   52.1084 C.2     1  ZINC001109848453    0.5000
      3 C3         -5.3253    3.4771   53.1012 C.3     1  ZINC001109848453    0.1100
      4 N4         -6.0438    2.2811   52.6547 N.pl3   1  ZINC001109848453   -0.3700
      5 C5         -7.3670    2.0586   52.7366 C.2     1  ZINC001109848453    0.2600
      6 N6         -7.6123    0.8773   52.2304 N.2     1  ZINC001109848453   -0.5400
      7 C7         -6.4758    0.3182   51.8167 C.2     1  ZINC001109848453    0.2000
      8 N8         -5.4879    1.1417   52.0505 N.2     1  ZINC001109848453   -0.2900
      9 N9         -3.2380    2.9411   51.8869 N.am    1  ZINC001109848453   -0.7300
     10 C10        -2.1851    3.2669   50.9219 C.3     1  ZINC001109848453    0.1700
     11 H11        -2.5496    4.0249   50.2284 H       1  ZINC001109848453    0.1000
     12 C12        -1.7988    2.0074   50.1438 C.3     1  ZINC001109848453    0.1200
     13 N13        -1.7330    2.3180   48.7136 N.pl3   1  ZINC001109848453   -0.6800
     14 C14        -1.2789    1.3641   47.8179 C.2     1  ZINC001109848453    0.4900
     15 N15        -1.2935    0.0858   48.1428 N.2     1  ZINC001109848453   -0.5300
     16 C16        -0.8598   -0.8465   47.2908 C.2     1  ZINC001109848453    0.1400
     17 C17        -0.3908   -0.5197   46.0688 C.2     1  ZINC001109848453   -0.0500
     18 N18        -0.3530    0.7904   45.6797 N.pl3   1  ZINC001109848453   -0.1800
     19 N19         0.0273    1.3977   44.6121 N.2     1  ZINC001109848453   -0.1000
     20 N20        -0.1493    2.6651   44.7582 N.2     1  ZINC001109848453   -0.0400
     21 N21        -0.6478    2.9100   45.9228 N.2     1  ZINC001109848453   -0.2600
     22 C22        -0.8007    1.7513   46.5439 C.2     1  ZINC001109848453    0.1000
     23 C23        -0.9599    3.8029   51.6653 C.3     1  ZINC001109848453   -0.1800
     24 C24         0.2856    4.1224   50.8361 C.3     1  ZINC001109848453   -0.1700
     25 C25        -0.5614    5.2584   51.4131 C.3     1  ZINC001109848453   -0.1700
     26 H26        -4.8780    3.2890   54.0773 H       1  ZINC001109848453    0.1300
     27 H27        -6.0214    4.3126   53.1755 H       1  ZINC001109848453    0.1200
     28 H28        -8.0999    2.7363   53.1490 H       1  ZINC001109848453    0.2200
     29 H29        -6.3859   -0.6558   51.3588 H       1  ZINC001109848453    0.2200
     30 H30        -3.2124    2.0983   52.3666 H       1  ZINC001109848453    0.4000
     31 H31        -0.8254    1.6544   50.4841 H       1  ZINC001109848453    0.1000
     32 H32        -2.5461    1.2322   50.3132 H       1  ZINC001109848453    0.0900
     33 H33        -2.0073    3.1918   48.3939 H       1  ZINC001109848453    0.4200
     34 H34        -0.8846   -1.8849   47.5866 H       1  ZINC001109848453    0.2000
     35 H35        -0.0452   -1.2925   45.3983 H       1  ZINC001109848453    0.1900
     36 H36        -0.8085    3.4064   52.6692 H       1  ZINC001109848453    0.1100
     37 H37         1.2568    3.9360   51.2944 H       1  ZINC001109848453    0.1000
     38 H38         0.2322    3.9508   49.7611 H       1  ZINC001109848453    0.1000
     39 H39        -1.1722    5.8342   50.7176 H       1  ZINC001109848453    0.1200
     40 H40        -0.1475    5.8194   52.2510 H       1  ZINC001109848453    0.0900
@<TRIPOS>BOND
     1     1     2    2
     2     2     3    1
     3     2     9   am
     4     3     4    1
     5     3    26    1
     6     3    27    1
     7     4     8    1
     8     4     5    1
     9     5     6    2
    10     5    28    1
    11     6     7    1
    12     7     8    2
    13     7    29    1
    14     9    10    1
    15     9    30    1
    16    10    11    1
    17    10    12    1
    18    10    23    1
    19    12    13    1
    20    12    31    1
    21    12    32    1
    22    13    14    1
    23    13    33    1
    24    14    22    1
    25    14    15    2
    26    15    16    1
    27    16    17    2
    28    16    34    1
    29    17    18    1
    30    17    35    1
    31    18    22    1
    32    18    19    1
    33    19    20    2
    34    20    21    1
    35    21    22    2
    36    23    25    1
    37    23    24    1
    38    23    36    1
    39    24    25    1
    40    24    37    1
    41    24    38    1
    42    25    39    1
    43    25    40    1
@<TRIPOS>SUBSTRUCTURE
     1 ZINC001109848453        1 TEMP              0 ****  ****    0 ROOT


##########                                Name:    ZINC000971513996
##########                DOCK_Rotatable_Bonds:                   6
##########                         Heavy_Atoms:                  27
##########                    Molecular_Weight:             369.464
##########                DOCK_Rotatable_Bonds:                   6
##########                       Formal_Charge:          -0.0300002
##########                     HBond_Acceptors:                   6
##########                        HBond_Donors:                   1
##########                         Heavy_Atoms:                  27
##########                          Grid_Score:          -29.651384
##########                     Grid_vdw_energy:          -28.423540
##########                      Grid_es_energy:           -1.227844
##########           Internal_energy_repulsive:           15.252807

@<TRIPOS>MOLECULE
ZINC000971513996
 54 57 1 0 0
SMALL
USER_CHARGES


@<TRIPOS>ATOM
      1 C1        -14.8414   -5.0709   55.7676 C.3     1  ZINC000971513996   -0.1600
      2 C2        -15.2648   -3.6423   56.1152 C.3     1  ZINC000971513996   -0.1400
      3 C3        -14.7383   -3.2782   57.5048 C.3     1  ZINC000971513996    0.0800
      4 H4        -15.0838   -2.2801   57.7742 H       1  ZINC000971513996    0.0800
      5 O5        -15.2223   -4.2239   58.4606 O.3     1  ZINC000971513996   -0.3600
      6 C6        -16.4740   -3.8661   59.0497 C.3     1  ZINC000971513996    0.0200
      7 C7        -13.2315   -3.3020   57.4932 C.2     1  ZINC000971513996    0.5400
      8 O8        -12.6359   -4.2341   57.9906 O.2     1  ZINC000971513996   -0.5100
      9 N9        -12.5458   -2.2876   56.9300 N.am    1  ZINC000971513996   -0.6400
     10 C10       -12.8739   -1.0242   56.2478 C.3     1  ZINC000971513996    0.1000
     11 C11       -11.5319   -0.4714   56.7650 C.3     1  ZINC000971513996   -0.1200
     12 H12       -10.9958    0.1688   56.0643 H       1  ZINC000971513996    0.1100
     13 C13       -11.6780    0.1298   58.1650 C.3     1  ZINC000971513996   -0.1200
     14 C14       -10.4254   -0.1926   58.9852 C.3     1  ZINC000971513996    0.1100
     15 N15       -10.2743   -1.6491   59.0389 N.am    1  ZINC000971513996   -0.6000
     16 C16       -10.2086   -2.2709   60.2329 C.2     1  ZINC000971513996    0.5900
     17 O17       -10.0830   -3.4798   60.2830 O.2     1  ZINC000971513996   -0.5200
     18 C18       -10.2884   -1.4878   61.4751 C.2     1  ZINC000971513996    0.0200
     19 C19       -11.4365   -1.0887   62.0820 C.2     1  ZINC000971513996   -0.1000
     20 C20       -11.0800   -0.3630   63.2444 C.ar    1  ZINC000971513996   -0.1100
     21 C21       -11.8228    0.2772   64.2445 C.ar    1  ZINC000971513996   -0.0600
     22 C22       -11.1793    0.9110   65.2675 C.ar    1  ZINC000971513996   -0.1200
     23 C23       -11.9816    1.5989   66.3419 C.3     1  ZINC000971513996   -0.1100
     24 C24        -9.7918    0.9274   65.3282 C.ar    1  ZINC000971513996   -0.0800
     25 C25        -9.0392    0.3052   64.3571 C.ar    1  ZINC000971513996   -0.1300
     26 C26        -9.6724   -0.3474   63.3033 C.ar    1  ZINC000971513996    0.1100
     27 N27        -9.2080   -1.0462   62.2141 N.pl3   1  ZINC000971513996   -0.5800
     28 C28       -10.1950   -2.4306   57.8118 C.3     1  ZINC000971513996    0.0700
     29 C29       -11.1376   -1.9404   56.7255 C.3     1  ZINC000971513996    0.1300
     30 H30       -10.7924   -2.2429   55.7369 H       1  ZINC000971513996    0.1100
     31 H31       -15.3024   -5.3674   54.8255 H       1  ZINC000971513996    0.0600
     32 H32       -13.7566   -5.1151   55.6710 H       1  ZINC000971513996    0.0600
     33 H33       -15.1636   -5.7480   56.5587 H       1  ZINC000971513996    0.0600
     34 H34       -14.8536   -2.9521   55.3785 H       1  ZINC000971513996    0.0800
     35 H35       -16.3527   -3.5742   56.1095 H       1  ZINC000971513996    0.0800
     36 H36       -16.3496   -2.9624   59.6464 H       1  ZINC000971513996    0.0400
     37 H37       -17.2069   -3.6845   58.2637 H       1  ZINC000971513996    0.0500
     38 H38       -16.8202   -4.6785   59.6887 H       1  ZINC000971513996    0.0900
     39 H39       -12.9181   -1.1143   55.1624 H       1  ZINC000971513996    0.0900
     40 H40       -13.7434   -0.5169   56.6658 H       1  ZINC000971513996    0.0800
     41 H41       -11.7937    1.2108   58.0868 H       1  ZINC000971513996    0.0900
     42 H42       -12.5535   -0.2965   58.6548 H       1  ZINC000971513996    0.0700
     43 H43        -9.5505    0.2504   58.5095 H       1  ZINC000971513996    0.0800
     44 H44       -10.5354    0.2031   59.9949 H       1  ZINC000971513996    0.1000
     45 H45       -12.4410   -1.2889   61.7393 H       1  ZINC000971513996    0.1500
     46 H46       -12.9021    0.2698   64.2058 H       1  ZINC000971513996    0.1200
     47 H47       -12.1883    0.8948   67.1480 H       1  ZINC000971513996    0.0700
     48 H48       -11.4151    2.4437   66.7336 H       1  ZINC000971513996    0.0600
     49 H49       -12.9217    1.9555   65.9211 H       1  ZINC000971513996    0.0600
     50 H50        -9.2981    1.4334   66.1447 H       1  ZINC000971513996    0.1300
     51 H51        -7.9608    0.3238   64.4128 H       1  ZINC000971513996    0.1200
     52 H52        -8.2751   -1.2024   61.9993 H       1  ZINC000971513996    0.4200
     53 H53        -9.1766   -2.3774   57.4268 H       1  ZINC000971513996    0.0800
     54 H54       -10.4268   -3.4705   58.0422 H       1  ZINC000971513996    0.1200
@<TRIPOS>BOND
     1     1     2    1
     2     1    31    1
     3     1    32    1
     4     1    33    1
     5     2     3    1
     6     2    34    1
     7     2    35    1
     8     3     4    1
     9     3     5    1
    10     3     7    1
    11     5     6    1
    12     6    36    1
    13     6    37    1
    14     6    38    1
    15     7     8    2
    16     7     9   am
    17     9    29    1
    18     9    10    1
    19    10    11    1
    20    10    39    1
    21    10    40    1
    22    11    12    1
    23    11    29    1
    24    11    13    1
    25    13    14    1
    26    13    41    1
    27    13    42    1
    28    14    15    1
    29    14    43    1
    30    14    44    1
    31    15    16   am
    32    15    28    1
    33    16    17    2
    34    16    18    1
    35    18    27    1
    36    18    19    2
    37    19    20    1
    38    19    45    1
    39    20    26   ar
    40    20    21   ar
    41    21    22   ar
    42    21    46    1
    43    22    23    1
    44    22    24   ar
    45    23    47    1
    46    23    48    1
    47    23    49    1
    48    24    25   ar
    49    24    50    1
    50    25    26   ar
    51    25    51    1
    52    26    27    1
    53    27    52    1
    54    28    29    1
    55    28    53    1
    56    28    54    1
    57    29    30    1
@<TRIPOS>SUBSTRUCTURE
     1 ZINC000971513996        1 TEMP              0 ****  ****    0 ROOT


##########                                Name:    ZINC000848949366
##########                DOCK_Rotatable_Bonds:                   8
##########                         Heavy_Atoms:                  25
##########                    Molecular_Weight:             368.773
##########                DOCK_Rotatable_Bonds:                   8
##########                       Formal_Charge:          0.00999947
##########                     HBond_Acceptors:                   9
##########                        HBond_Donors:                   3
##########                         Heavy_Atoms:                  25
##########                          Grid_Score:          -29.648298
##########                     Grid_vdw_energy:          -27.543074
##########                      Grid_es_energy:           -2.105224
##########           Internal_energy_repulsive:           18.067898

@<TRIPOS>MOLECULE
ZINC000848949366
 42 43 1 0 0
SMALL
USER_CHARGES


@<TRIPOS>ATOM
      1 C1        -10.4457    2.2094   58.8840 C.3     1  ZINC000848949366   -0.1500
      2 C2        -11.1052    2.7724   60.1446 C.3     1  ZINC000848949366    0.0600
      3 O3        -10.4485    2.2481   61.3004 O.3     1  ZINC000848949366   -0.3500
      4 C4        -10.8796    1.0554   61.7617 C.2     1  ZINC000848949366    0.5400
      5 O5        -11.7825    0.4726   61.1910 O.2     1  ZINC000848949366   -0.4800
      6 C6        -10.2818    0.4827   62.9087 C.2     1  ZINC000848949366   -0.2300
      7 C7         -9.4637   -0.5871   62.8091 C.2     1  ZINC000848949366    0.2000
      8 C8         -9.1821   -1.1813   61.4531 C.3     1  ZINC000848949366    0.1000
      9 O9        -10.3250   -1.9661   61.0217 O.3     1  ZINC000848949366   -0.3500
     10 C10       -10.3253   -2.3953   59.7443 C.2     1  ZINC000848949366    0.5100
     11 O11        -9.2820   -2.4593   59.1245 O.2     1  ZINC000848949366   -0.4800
     12 C12       -11.5907   -2.7871   59.0991 C.ar    1  ZINC000848949366   -0.1600
     13 C13       -12.7992   -2.6655   59.7907 C.ar    1  ZINC000848949366   -0.0300
     14 C14       -13.9789   -3.0335   59.1822 C.ar    1  ZINC000848949366   -0.1300
     15 C15       -13.9735   -3.5249   57.8854 C.ar    1  ZINC000848949366    0.0200
     16 Cl16      -15.4675   -3.9854   57.1308 Cl      1  ZINC000848949366   -0.0500
     17 C17       -12.7852   -3.6498   57.1901 C.ar    1  ZINC000848949366   -0.1500
     18 C18       -11.5897   -3.2787   57.7854 C.ar    1  ZINC000848949366    0.1900
     19 O19       -10.4230   -3.4007   57.1045 O.3     1  ZINC000848949366   -0.4700
     20 N20        -8.8868   -1.1388   63.9171 N.am    1  ZINC000848949366   -0.6400
     21 C21        -9.0781   -0.6798   65.1604 C.2     1  ZINC000848949366    0.7100
     22 O22        -8.5207   -1.2379   66.0853 O.2     1  ZINC000848949366   -0.5600
     23 N23        -9.8680    0.3810   65.4196 N.am    1  ZINC000848949366   -0.7100
     24 C24       -10.5328    1.0524   64.2901 C.3     1  ZINC000848949366    0.2000
     25 H25       -10.2235    2.0976   64.2914 H       1  ZINC000848949366    0.0900
     26 C26       -12.0418    1.0111   64.5389 C.3     1  ZINC000848949366   -0.1700
     27 H27       -10.9466    2.6093   58.0024 H       1  ZINC000848949366    0.0800
     28 H28        -9.3940    2.4954   58.8655 H       1  ZINC000848949366    0.0700
     29 H29       -10.5267    1.1224   58.8861 H       1  ZINC000848949366    0.0700
     30 H30       -11.0242    3.8594   60.1425 H       1  ZINC000848949366    0.0700
     31 H31       -12.1569    2.4863   60.1631 H       1  ZINC000848949366    0.0700
     32 H32        -8.9998   -0.3806   60.7363 H       1  ZINC000848949366    0.1100
     33 H33        -8.3027   -1.8225   61.5129 H       1  ZINC000848949366    0.1000
     34 H34       -12.8080   -2.2839   60.8010 H       1  ZINC000848949366    0.1500
     35 H35       -14.9121   -2.9391   59.7175 H       1  ZINC000848949366    0.1500
     36 H36       -12.7888   -4.0333   56.1805 H       1  ZINC000848949366    0.1500
     37 H37        -9.6683   -2.9799   57.5387 H       1  ZINC000848949366    0.4000
     38 H38        -8.3061   -1.9064   63.7968 H       1  ZINC000848949366    0.4300
     39 H39        -9.9930    0.6966   66.3283 H       1  ZINC000848949366    0.4400
     40 H40       -12.2707    1.5269   65.4714 H       1  ZINC000848949366    0.0700
     41 H41       -12.5594    1.5029   63.7151 H       1  ZINC000848949366    0.0700
     42 H42       -12.3706   -0.0259   64.6070 H       1  ZINC000848949366    0.0700
@<TRIPOS>BOND
     1     1     2    1
     2     1    27    1
     3     1    28    1
     4     1    29    1
     5     2     3    1
     6     2    30    1
     7     2    31    1
     8     3     4    1
     9     4     5    2
    10     4     6    1
    11     6    24    1
    12     6     7    2
    13     7     8    1
    14     7    20    1
    15     8     9    1
    16     8    32    1
    17     8    33    1
    18     9    10    1
    19    10    11    2
    20    10    12    1
    21    12    18   ar
    22    12    13   ar
    23    13    14   ar
    24    13    34    1
    25    14    15   ar
    26    14    35    1
    27    15    16    1
    28    15    17   ar
    29    17    18   ar
    30    17    36    1
    31    18    19    1
    32    19    37    1
    33    20    21   am
    34    20    38    1
    35    21    22    2
    36    21    23   am
    37    23    24    1
    38    23    39    1
    39    24    25    1
    40    24    26    1
    41    26    40    1
    42    26    41    1
    43    26    42    1
@<TRIPOS>SUBSTRUCTURE
     1 ZINC000848949366        1 TEMP              0 ****  ****    0 ROOT


##########                                Name:    ZINC001119787528
##########                DOCK_Rotatable_Bonds:                   6
##########                         Heavy_Atoms:                  27
##########                    Molecular_Weight:             362.434
##########                DOCK_Rotatable_Bonds:                   6
##########                       Formal_Charge:          -0.0199998
##########                     HBond_Acceptors:                   7
##########                        HBond_Donors:                   1
##########                         Heavy_Atoms:                  27
##########                          Grid_Score:          -29.637630
##########                     Grid_vdw_energy:          -30.009565
##########                      Grid_es_energy:            0.371934
##########           Internal_energy_repulsive:           14.262621

@<TRIPOS>MOLECULE
ZINC001119787528
 49 52 1 0 0
SMALL
USER_CHARGES


@<TRIPOS>ATOM
      1 C1        -17.9427   -5.2823   52.8538 C.3     1  ZINC001119787528   -0.1700
      2 C2        -16.4399   -5.5281   52.7052 C.3     1  ZINC001119787528    0.1000
      3 N3        -15.8881   -5.9692   53.9887 N.pl3   1  ZINC001119787528   -0.4500
      4 C4        -15.6319   -7.2453   54.3580 C.2     1  ZINC001119787528    0.1800
      5 N5        -15.1473   -7.2425   55.5726 N.2     1  ZINC001119787528   -0.4800
      6 C6        -15.0790   -5.9843   56.0126 C.2     1  ZINC001119787528   -0.0200
      7 C7        -15.5307   -5.1715   55.0334 C.2     1  ZINC001119787528   -0.0100
      8 C8        -15.6081   -3.6703   55.1284 C.3     1  ZINC001119787528   -0.0600
      9 C9        -15.5327   -3.2638   56.6058 C.3     1  ZINC001119787528    0.1400
     10 N10       -14.4591   -4.0260   57.2605 N.am    1  ZINC001119787528   -0.6200
     11 C11       -13.3753   -3.4007   57.7614 C.2     1  ZINC001119787528    0.7200
     12 O12       -13.2768   -2.1921   57.6751 O.2     1  ZINC001119787528   -0.5600
     13 N13       -12.4008   -4.1153   58.3582 N.am    1  ZINC001119787528   -0.6600
     14 C14       -11.2830   -3.4704   58.8748 C.ar    1  ZINC001119787528    0.4200
     15 C15       -10.0114   -4.0229   58.7197 C.ar    1  ZINC001119787528   -0.2500
     16 C16        -8.9316   -3.3432   59.2508 C.ar    1  ZINC001119787528    0.1600
     17 N17        -9.1372   -2.1982   59.8850 N.ar    1  ZINC001119787528   -0.5300
     18 C18       -10.3516   -1.7028   60.0147 C.ar    1  ZINC001119787528    0.3500
     19 C19       -10.5361   -0.3969   60.7439 C.3     1  ZINC001119787528   -0.0100
     20 C20       -11.9916   -0.2162   61.0901 C.ar    1  ZINC001119787528   -0.0800
     21 C21       -12.4815   -0.6972   62.2899 C.ar    1  ZINC001119787528   -0.1000
     22 C22       -13.8166   -0.5315   62.6075 C.ar    1  ZINC001119787528   -0.1200
     23 C23       -14.6619    0.1154   61.7254 C.ar    1  ZINC001119787528   -0.1200
     24 C24       -14.1717    0.5971   60.5259 C.ar    1  ZINC001119787528   -0.1200
     25 C25       -12.8356    0.4352   60.2103 C.ar    1  ZINC001119787528   -0.1000
     26 N26       -11.4080   -2.3147   59.5197 N.ar    1  ZINC001119787528   -0.5500
     27 C27       -14.5924   -5.4902   57.3544 C.3     1  ZINC001119787528    0.2000
     28 H28       -18.3533   -4.9541   51.8988 H       1  ZINC001119787528    0.0800
     29 H29       -18.4332   -6.2057   53.1621 H       1  ZINC001119787528    0.0600
     30 H30       -18.1123   -4.5121   53.6061 H       1  ZINC001119787528    0.0600
     31 H31       -16.2703   -6.2984   51.9529 H       1  ZINC001119787528    0.0900
     32 H32       -15.9495   -4.6047   52.3969 H       1  ZINC001119787528    0.1000
     33 H33       -15.8002   -8.1219   53.7501 H       1  ZINC001119787528    0.2100
     34 H34       -14.7745   -3.2263   54.5843 H       1  ZINC001119787528    0.0800
     35 H35       -16.5502   -3.3255   54.7022 H       1  ZINC001119787528    0.0900
     36 H36       -15.3198   -2.1973   56.6799 H       1  ZINC001119787528    0.1100
     37 H37       -16.4832   -3.4815   57.0927 H       1  ZINC001119787528    0.0800
     38 H38       -12.4794   -5.0796   58.4271 H       1  ZINC001119787528    0.4200
     39 H39        -9.8743   -4.9585   58.1979 H       1  ZINC001119787528    0.1800
     40 H40        -7.9324   -3.7408   59.1504 H       1  ZINC001119787528    0.1700
     41 H41        -9.9434   -0.4047   61.6586 H       1  ZINC001119787528    0.1000
     42 H42       -10.2095    0.4246   60.1064 H       1  ZINC001119787528    0.1000
     43 H43       -11.8212   -1.2027   62.9790 H       1  ZINC001119787528    0.1300
     44 H44       -14.1996   -0.9079   63.5446 H       1  ZINC001119787528    0.1200
     45 H45       -15.7050    0.2442   61.9732 H       1  ZINC001119787528    0.1200
     46 H46       -14.8321    1.1022   59.8366 H       1  ZINC001119787528    0.1200
     47 H47       -12.4528    0.8116   59.2732 H       1  ZINC001119787528    0.1200
     48 H48       -15.3194   -5.7478   58.1245 H       1  ZINC001119787528    0.0900
     49 H49       -13.6264   -5.9362   57.5909 H       1  ZINC001119787528    0.0900
@<TRIPOS>BOND
     1     1     2    1
     2     1    28    1
     3     1    29    1
     4     1    30    1
     5     2     3    1
     6     2    31    1
     7     2    32    1
     8     3     7    1
     9     3     4    1
    10     4     5    2
    11     4    33    1
    12     5     6    1
    13     6    27    1
    14     6     7    2
    15     7     8    1
    16     8     9    1
    17     8    34    1
    18     8    35    1
    19     9    10    1
    20     9    36    1
    21     9    37    1
    22    10    11   am
    23    10    27    1
    24    11    12    2
    25    11    13   am
    26    13    14    1
    27    13    38    1
    28    14    26   ar
    29    14    15   ar
    30    15    16   ar
    31    15    39    1
    32    16    17   ar
    33    16    40    1
    34    17    18   ar
    35    18    19    1
    36    18    26   ar
    37    19    20    1
    38    19    41    1
    39    19    42    1
    40    20    25   ar
    41    20    21   ar
    42    21    22   ar
    43    21    43    1
    44    22    23   ar
    45    22    44    1
    46    23    24   ar
    47    23    45    1
    48    24    25   ar
    49    24    46    1
    50    25    47    1
    51    27    48    1
    52    27    49    1
@<TRIPOS>SUBSTRUCTURE
     1 ZINC001119787528        1 TEMP              0 ****  ****    0 ROOT


##########                                Name:    ZINC001045463759
##########                DOCK_Rotatable_Bonds:                   6
##########                         Heavy_Atoms:                  24
##########                    Molecular_Weight:             336.385
##########                DOCK_Rotatable_Bonds:                   6
##########                       Formal_Charge:          1.3411e-07
##########                     HBond_Acceptors:                   7
##########                        HBond_Donors:                   2
##########                         Heavy_Atoms:                  24
##########                          Grid_Score:          -29.624863
##########                     Grid_vdw_energy:          -24.628046
##########                      Grid_es_energy:           -4.996818
##########           Internal_energy_repulsive:           13.224380

@<TRIPOS>MOLECULE
ZINC001045463759
 46 49 1 0 0
SMALL
USER_CHARGES


@<TRIPOS>ATOM
      1 O1         -9.8183   -1.0843   64.8612 O.2     1  ZINC001045463759   -0.5100
      2 C2         -9.3575    0.0112   64.6191 C.2     1  ZINC001045463759    0.5400
      3 N3         -9.4094    0.5019   63.3649 N.am    1  ZINC001045463759   -0.7200
      4 C4        -10.0167   -0.2906   62.2928 C.3     1  ZINC001045463759    0.1400
      5 H5        -10.9196   -0.7743   62.6654 H       1  ZINC001045463759    0.1000
      6 C6         -9.0248   -1.3559   61.8214 C.3     1  ZINC001045463759   -0.1300
      7 C7         -9.6591   -2.1835   60.7018 C.3     1  ZINC001045463759   -0.1200
      8 C8        -10.0179   -1.2668   59.5305 C.3     1  ZINC001045463759   -0.1200
      9 C9        -11.0097   -0.2015   60.0019 C.3     1  ZINC001045463759   -0.1300
     10 C10       -10.3755    0.6261   61.1215 C.3     1  ZINC001045463759    0.1500
     11 H11        -9.4725    1.1098   60.7489 H       1  ZINC001045463759    0.0900
     12 N12       -11.3252    1.6462   61.5728 N.pl3   1  ZINC001045463759   -0.7100
     13 C13       -12.3986    1.2881   62.3720 C.ar    1  ZINC001045463759    0.4400
     14 C14       -12.4913    1.7529   63.6854 C.ar    1  ZINC001045463759   -0.3000
     15 C15       -13.5808    1.3676   64.4417 C.ar    1  ZINC001045463759    0.1800
     16 N16       -14.4959    0.5757   63.9009 N.ar    1  ZINC001045463759   -0.5600
     17 C17       -14.3796    0.1538   62.6579 C.ar    1  ZINC001045463759    0.4000
     18 C18       -15.4457   -0.7454   62.0867 C.3     1  ZINC001045463759   -0.1100
     19 C19       -15.0638   -2.1986   61.7980 C.3     1  ZINC001045463759   -0.1500
     20 C20       -15.9764   -1.8680   62.9807 C.3     1  ZINC001045463759   -0.1500
     21 N21       -13.3602    0.5006   61.8988 N.ar    1  ZINC001045463759   -0.5700
     22 C22        -8.7328    0.8264   65.7219 C.3     1  ZINC001045463759   -0.2000
     23 H23        -8.3066    1.7820   65.4164 H       1  ZINC001045463759    0.1500
     24 C24        -9.3764    0.7506   67.1079 C.3     1  ZINC001045463759   -0.1500
     25 C25        -8.0306    0.0681   66.8501 C.3     1  ZINC001045463759    0.2300
     26 F26        -8.0181   -1.3291   66.7793 F       1  ZINC001045463759   -0.1400
     27 F27        -6.8911    0.6543   67.4111 F       1  ZINC001045463759   -0.1500
     28 H28        -9.0444    1.3797   63.1720 H       1  ZINC001045463759    0.4000
     29 H29        -8.1219   -0.8722   61.4489 H       1  ZINC001045463759    0.0700
     30 H30        -8.7692   -2.0091   62.6559 H       1  ZINC001045463759    0.0800
     31 H31        -8.9525   -2.9426   60.3659 H       1  ZINC001045463759    0.0700
     32 H32       -10.5620   -2.6673   61.0744 H       1  ZINC001045463759    0.0700
     33 H33        -9.1150   -0.7832   59.1580 H       1  ZINC001045463759    0.0700
     34 H34       -10.4697   -1.8564   58.7329 H       1  ZINC001045463759    0.0700
     35 H35       -11.2653    0.4516   59.1675 H       1  ZINC001045463759    0.0700
     36 H36       -11.9127   -0.6852   60.3745 H       1  ZINC001045463759    0.0700
     37 H37       -11.2023    2.5723   61.3120 H       1  ZINC001045463759    0.4100
     38 H38       -11.7298    2.3971   64.0996 H       1  ZINC001045463759    0.1400
     39 H39       -13.6858    1.7072   65.4616 H       1  ZINC001045463759    0.1700
     40 H40       -16.1513   -0.2659   61.4085 H       1  ZINC001045463759    0.1300
     41 H41       -15.5183   -2.6753   60.9295 H       1  ZINC001045463759    0.1000
     42 H42       -14.0415   -2.5042   62.0212 H       1  ZINC001045463759    0.1100
     43 H43       -15.5547   -1.9561   63.9818 H       1  ZINC001045463759    0.1000
     44 H44       -17.0313   -2.1272   62.8903 H       1  ZINC001045463759    0.1000
     45 H45        -9.3732    1.6563   67.7144 H       1  ZINC001045463759    0.1400
     46 H46       -10.2516    0.1111   67.2221 H       1  ZINC001045463759    0.1300
@<TRIPOS>BOND
     1     1     2    2
     2     2     3   am
     3     2    22    1
     4     3     4    1
     5     3    28    1
     6     4     5    1
     7     4    10    1
     8     4     6    1
     9     6     7    1
    10     6    29    1
    11     6    30    1
    12     7     8    1
    13     7    31    1
    14     7    32    1
    15     8     9    1
    16     8    33    1
    17     8    34    1
    18     9    10    1
    19     9    35    1
    20     9    36    1
    21    10    11    1
    22    10    12    1
    23    12    13    1
    24    12    37    1
    25    13    21   ar
    26    13    14   ar
    27    14    15   ar
    28    14    38    1
    29    15    16   ar
    30    15    39    1
    31    16    17   ar
    32    17    18    1
    33    17    21   ar
    34    18    20    1
    35    18    19    1
    36    18    40    1
    37    19    20    1
    38    19    41    1
    39    19    42    1
    40    20    43    1
    41    20    44    1
    42    22    23    1
    43    22    25    1
    44    22    24    1
    45    24    25    1
    46    24    45    1
    47    24    46    1
    48    25    26    1
    49    25    27    1
@<TRIPOS>SUBSTRUCTURE
     1 ZINC001045463759        1 TEMP              0 ****  ****    0 ROOT


##########                                Name:    ZINC000967287417
##########                DOCK_Rotatable_Bonds:                   7
##########                         Heavy_Atoms:                  25
##########                    Molecular_Weight:             347.414
##########                DOCK_Rotatable_Bonds:                   7
##########                       Formal_Charge:          -0.0200002
##########                     HBond_Acceptors:                   7
##########                        HBond_Donors:                   1
##########                         Heavy_Atoms:                  25
##########                          Grid_Score:          -29.619186
##########                     Grid_vdw_energy:          -29.888288
##########                      Grid_es_energy:            0.269103
##########           Internal_energy_repulsive:           11.149520

@<TRIPOS>MOLECULE
ZINC000967287417
 50 52 1 0 0
SMALL
USER_CHARGES


@<TRIPOS>ATOM
      1 C1         -1.4787    0.7042   44.6353 C.3     1  ZINC000967287417    0.0300
      2 O2         -0.2706    0.1487   45.1589 O.3     1  ZINC000967287417   -0.3900
      3 C3         -0.4662   -0.7142   46.2810 C.3     1  ZINC000967287417    0.1400
      4 C4         -0.9733    0.0896   47.4505 C.2     1  ZINC000967287417    0.0100
      5 C5         -1.5724   -0.4151   48.5516 C.2     1  ZINC000967287417   -0.1900
      6 C6         -1.8843    0.6696   49.3861 C.2     1  ZINC000967287417   -0.1200
      7 C7         -1.4544    1.7953   48.7438 C.2     1  ZINC000967287417   -0.0700
      8 C8         -1.5704    3.1695   49.2425 C.2     1  ZINC000967287417    0.6100
      9 O9         -1.2960    4.1060   48.5153 O.2     1  ZINC000967287417   -0.5200
     10 N10        -1.9809    3.3955   50.5062 N.am    1  ZINC000967287417   -0.7000
     11 C11        -2.0985    4.7684   51.0038 C.3     1  ZINC000967287417    0.1600
     12 H12        -1.9012    5.4680   50.1915 H       1  ZINC000967287417    0.1000
     13 C13        -3.5124    4.9971   51.5429 C.3     1  ZINC000967287417    0.0400
     14 N14        -3.7714    4.0683   52.6505 N.3     1  ZINC000967287417   -0.5300
     15 C15        -5.1660    4.1637   53.1022 C.3     1  ZINC000967287417    0.1300
     16 C16        -5.8995    2.8985   52.7381 C.2     1  ZINC000967287417    0.0200
     17 N17        -7.1280    2.5943   53.0425 N.2     1  ZINC000967287417   -0.3500
     18 O18        -7.4380    1.5083   52.6104 O.3     1  ZINC000967287417    0.1000
     19 C19        -6.4254    0.9357   51.9443 C.2     1  ZINC000967287417   -0.0300
     20 C20        -6.4372   -0.4114   51.2688 C.3     1  ZINC000967287417   -0.0800
     21 C21        -5.3917    1.8096   51.9930 C.2     1  ZINC000967287417   -0.2400
     22 C22        -2.8410    4.2964   53.7634 C.3     1  ZINC000967287417    0.0500
     23 C23        -1.4071    4.0469   53.2905 C.3     1  ZINC000967287417   -0.1100
     24 C24        -1.0850    4.9928   52.1294 C.3     1  ZINC000967287417   -0.1000
     25 H25        -1.1452    6.0254   52.4732 H       1  ZINC000967287417    0.0900
     26 C26         0.3270    4.7072   51.6137 C.3     1  ZINC000967287417   -0.1500
     27 O27        -0.8992    1.4213   47.5725 O.3     1  ZINC000967287417   -0.1600
     28 H28        -1.9744    1.2903   45.4092 H       1  ZINC000967287417    0.0500
     29 H29        -1.2450    1.3470   43.7865 H       1  ZINC000967287417    0.0900
     30 H30        -2.1380   -0.1008   44.3109 H       1  ZINC000967287417    0.0500
     31 H31        -1.1952   -1.4831   46.0253 H       1  ZINC000967287417    0.0900
     32 H32         0.4803   -1.1849   46.5467 H       1  ZINC000967287417    0.0700
     33 H33        -1.7735   -1.4571   48.7519 H       1  ZINC000967287417    0.1600
     34 H34        -2.3703    0.6230   50.3494 H       1  ZINC000967287417    0.1600
     35 H35        -2.1985    2.6491   51.0863 H       1  ZINC000967287417    0.4100
     36 H36        -3.6034    6.0228   51.9003 H       1  ZINC000967287417    0.0500
     37 H37        -4.2370    4.8243   50.7471 H       1  ZINC000967287417    0.0900
     38 H38        -5.1893    4.2988   54.1835 H       1  ZINC000967287417    0.0600
     39 H39        -5.6471    5.0142   52.6193 H       1  ZINC000967287417    0.0900
     40 H40        -7.4149   -0.8749   51.3996 H       1  ZINC000967287417    0.0800
     41 H41        -6.2336   -0.2863   50.2053 H       1  ZINC000967287417    0.0900
     42 H42        -5.6713   -1.0471   51.7131 H       1  ZINC000967287417    0.0900
     43 H43        -4.4056    1.6976   51.5670 H       1  ZINC000967287417    0.1700
     44 H44        -2.9351    5.3254   54.1104 H       1  ZINC000967287417    0.0400
     45 H45        -3.0779    3.6148   54.5804 H       1  ZINC000967287417    0.0800
     46 H46        -0.7154    4.2314   54.1126 H       1  ZINC000967287417    0.0700
     47 H47        -1.3086    3.0140   52.9564 H       1  ZINC000967287417    0.0700
     48 H48         0.3856    3.6752   51.2679 H       1  ZINC000967287417    0.0600
     49 H49         0.5552    5.3807   50.7876 H       1  ZINC000967287417    0.0600
     50 H50         1.0458    4.8623   52.4182 H       1  ZINC000967287417    0.0600
@<TRIPOS>BOND
     1     1     2    1
     2     1    28    1
     3     1    29    1
     4     1    30    1
     5     2     3    1
     6     3     4    1
     7     3    31    1
     8     3    32    1
     9     4    27    1
    10     4     5    2
    11     5     6    1
    12     5    33    1
    13     6     7    2
    14     6    34    1
    15     7     8    1
    16     7    27    1
    17     8     9    2
    18     8    10   am
    19    10    11    1
    20    10    35    1
    21    11    12    1
    22    11    24    1
    23    11    13    1
    24    13    14    1
    25    13    36    1
    26    13    37    1
    27    14    15    1
    28    14    22    1
    29    15    16    1
    30    15    38    1
    31    15    39    1
    32    16    21    1
    33    16    17    2
    34    17    18    1
    35    18    19    1
    36    19    20    1
    37    19    21    2
    38    20    40    1
    39    20    41    1
    40    20    42    1
    41    21    43    1
    42    22    23    1
    43    22    44    1
    44    22    45    1
    45    23    24    1
    46    23    46    1
    47    23    47    1
    48    24    25    1
    49    24    26    1
    50    26    48    1
    51    26    49    1
    52    26    50    1
@<TRIPOS>SUBSTRUCTURE
     1 ZINC000967287417        1 TEMP              0 ****  ****    0 ROOT


##########                                Name:    ZINC000505965769
##########                DOCK_Rotatable_Bonds:                   9
##########                         Heavy_Atoms:                  29
##########                    Molecular_Weight:              419.88
##########                DOCK_Rotatable_Bonds:                   9
##########                       Formal_Charge:               -0.02
##########                     HBond_Acceptors:                   7
##########                        HBond_Donors:                   1
##########                         Heavy_Atoms:                  29
##########                          Grid_Score:          -29.610617
##########                     Grid_vdw_energy:          -29.356461
##########                      Grid_es_energy:           -0.254156
##########           Internal_energy_repulsive:           18.292826

@<TRIPOS>MOLECULE
ZINC000505965769
 52 54 1 0 0
SMALL
USER_CHARGES


@<TRIPOS>ATOM
      1 C1         -6.0899    0.2764   50.8725 C.3     1  ZINC000505965769    0.0200
      2 O2         -7.2488    1.1120   50.9012 O.3     1  ZINC000505965769   -0.3100
      3 C3         -7.8948    1.2286   52.0885 C.ar    1  ZINC000505965769    0.1800
      4 C4         -7.2651    1.8502   53.1617 C.ar    1  ZINC000505965769   -0.2200
      5 C5         -7.9078    1.9724   54.3605 C.ar    1  ZINC000505965769   -0.0200
      6 C6         -9.2063    1.4709   54.5138 C.ar    1  ZINC000505965769   -0.2100
      7 C7         -9.8992    1.6014   55.8009 C.2     1  ZINC000505965769    0.3900
      8 O8        -10.4947    2.6239   56.0682 O.2     1  ZINC000505965769   -0.4400
      9 C9         -9.8711    0.4652   56.7905 C.3     1  ZINC000505965769   -0.1500
     10 C10        -9.8426    1.0282   58.2129 C.3     1  ZINC000505965769   -0.1300
     11 C11        -9.7931   -0.1077   59.2019 C.2     1  ZINC000505965769    0.5200
     12 O12        -9.2948   -1.1668   58.8844 O.2     1  ZINC000505965769   -0.5300
     13 N13       -10.3025    0.0535   60.4393 N.am    1  ZINC000505965769   -0.7200
     14 C14       -10.2528   -1.0503   61.4013 C.3     1  ZINC000505965769    0.1900
     15 H15        -9.3793   -1.6700   61.1985 H       1  ZINC000505965769    0.1100
     16 C16       -10.1607   -0.4945   62.7991 C.ar    1  ZINC000505965769   -0.1000
     17 C17        -9.2499   -1.0238   63.6942 C.ar    1  ZINC000505965769   -0.0900
     18 C18        -9.1646   -0.5148   64.9762 C.ar    1  ZINC000505965769   -0.1500
     19 C19        -9.9914    0.5259   65.3639 C.ar    1  ZINC000505965769    0.1000
     20 F20        -9.9086    1.0244   66.6168 F       1  ZINC000505965769   -0.1400
     21 C21       -10.9031    1.0556   64.4663 C.ar    1  ZINC000505965769   -0.1500
     22 C22       -10.9832    0.5482   63.1832 C.ar    1  ZINC000505965769   -0.0600
     23 C23       -11.5203   -1.8973   61.2717 C.3     1  ZINC000505965769    0.0800
     24 H24       -11.5175   -2.6972   62.0122 H       1  ZINC000505965769    0.0700
     25 C25       -12.7795   -1.0106   61.4427 C.3     1  ZINC000505965769   -0.1500
     26 C26       -13.8351   -1.8450   60.6671 C.3     1  ZINC000505965769   -0.1600
     27 C27       -12.9930   -2.4640   59.5308 C.3     1  ZINC000505965769    0.0500
     28 O28       -11.6212   -2.4443   59.9472 O.3     1  ZINC000505965769   -0.3700
     29 C29        -9.8420    0.8440   53.4326 C.ar    1  ZINC000505965769    0.0500
     30 Cl30      -11.4515    0.2186   53.6112 Cl      1  ZINC000505965769   -0.0200
     31 C31        -9.1857    0.7311   52.2261 C.ar    1  ZINC000505965769   -0.1600
     32 H32        -6.3670   -0.7390   51.1560 H       1  ZINC000505965769    0.0600
     33 H33        -5.6706    0.2710   49.8663 H       1  ZINC000505965769    0.1100
     34 H34        -5.3481    0.6596   51.5732 H       1  ZINC000505965769    0.0600
     35 H35        -6.2636    2.2377   53.0465 H       1  ZINC000505965769    0.1400
     36 H36        -7.4142    2.4557   55.1908 H       1  ZINC000505965769    0.1500
     37 H37       -10.7609   -0.1511   56.6615 H       1  ZINC000505965769    0.1100
     38 H38        -8.9814   -0.1414   56.6220 H       1  ZINC000505965769    0.1100
     39 H39        -8.9609    1.6570   58.3371 H       1  ZINC000505965769    0.1000
     40 H40       -10.7398    1.6224   58.3865 H       1  ZINC000505965769    0.1000
     41 H41       -10.7021    0.9002   60.6927 H       1  ZINC000505965769    0.4000
     42 H42        -8.6050   -1.8356   63.3916 H       1  ZINC000505965769    0.1300
     43 H43        -8.4534   -0.9289   65.6756 H       1  ZINC000505965769    0.1400
     44 H44       -11.5487    1.8670   64.7676 H       1  ZINC000505965769    0.1400
     45 H45       -11.6939    0.9614   62.4828 H       1  ZINC000505965769    0.1400
     46 H46       -13.0511   -0.9126   62.4937 H       1  ZINC000505965769    0.0700
     47 H47       -12.6366   -0.0327   60.9829 H       1  ZINC000505965769    0.1000
     48 H48       -14.2591   -2.6220   61.3033 H       1  ZINC000505965769    0.0700
     49 H49       -14.6177   -1.2022   60.2641 H       1  ZINC000505965769    0.0800
     50 H50       -13.3096   -3.4919   59.3539 H       1  ZINC000505965769    0.0700
     51 H51       -13.1126   -1.8770   58.6202 H       1  ZINC000505965769    0.0700
     52 H52        -9.6710    0.2494   51.3902 H       1  ZINC000505965769    0.1500
@<TRIPOS>BOND
     1     1     2    1
     2     1    32    1
     3     1    33    1
     4     1    34    1
     5     2     3    1
     6     3    31   ar
     7     3     4   ar
     8     4     5   ar
     9     4    35    1
    10     5     6   ar
    11     5    36    1
    12     6     7    1
    13     6    29   ar
    14     7     8    2
    15     7     9    1
    16     9    10    1
    17     9    37    1
    18     9    38    1
    19    10    11    1
    20    10    39    1
    21    10    40    1
    22    11    12    2
    23    11    13   am
    24    13    14    1
    25    13    41    1
    26    14    15    1
    27    14    16    1
    28    14    23    1
    29    16    22   ar
    30    16    17   ar
    31    17    18   ar
    32    17    42    1
    33    18    19   ar
    34    18    43    1
    35    19    20    1
    36    19    21   ar
    37    21    22   ar
    38    21    44    1
    39    22    45    1
    40    23    24    1
    41    23    28    1
    42    23    25    1
    43    25    26    1
    44    25    46    1
    45    25    47    1
    46    26    27    1
    47    26    48    1
    48    26    49    1
    49    27    28    1
    50    27    50    1
    51    27    51    1
    52    29    30    1
    53    29    31   ar
    54    31    52    1
@<TRIPOS>SUBSTRUCTURE
     1 ZINC000505965769        1 TEMP              0 ****  ****    0 ROOT


##########                                Name:    ZINC001053433946
##########                DOCK_Rotatable_Bonds:                   6
##########                         Heavy_Atoms:                  24
##########                    Molecular_Weight:             337.419
##########                DOCK_Rotatable_Bonds:                   6
##########                       Formal_Charge:               -0.02
##########                     HBond_Acceptors:                   7
##########                        HBond_Donors:                   2
##########                         Heavy_Atoms:                  24
##########                          Grid_Score:          -29.603565
##########                     Grid_vdw_energy:          -26.462116
##########                      Grid_es_energy:           -3.141448
##########           Internal_energy_repulsive:           12.646218

@<TRIPOS>MOLECULE
ZINC001053433946
 51 54 1 0 0
SMALL
USER_CHARGES


@<TRIPOS>ATOM
      1 N1         -8.8950   -0.6761   62.9824 N.am    1  ZINC001053433946   -0.8300
      2 C2         -9.9864   -0.1473   63.5704 C.2     1  ZINC001053433946    0.5600
      3 O3        -10.3579   -0.5650   64.6467 O.2     1  ZINC001053433946   -0.5500
      4 C4        -10.7451    0.9632   62.8905 C.3     1  ZINC001053433946   -0.1600
      5 H5        -10.1986    1.8979   62.7653 H       1  ZINC001053433946    0.1400
      6 C6        -12.2498    1.0542   63.1523 C.3     1  ZINC001053433946   -0.1300
      7 C7        -11.7369    0.5723   61.7929 C.3     1  ZINC001053433946   -0.1700
      8 H8        -11.8432    1.2500   60.9459 H       1  ZINC001053433946    0.1400
      9 C9        -11.8811   -0.8936   61.4746 C.2     1  ZINC001053433946    0.5400
     10 O10       -12.7331   -1.5539   62.0305 O.2     1  ZINC001053433946   -0.5200
     11 N11       -11.0633   -1.4708   60.5721 N.am    1  ZINC001053433946   -0.6100
     12 C12       -10.0220   -0.6919   59.8840 C.3     1  ZINC001053433946    0.0700
     13 C13       -10.1661   -0.9046   58.3734 C.3     1  ZINC001053433946    0.0500
     14 O14       -10.1492   -2.3069   58.0884 O.3     1  ZINC001053433946   -0.3400
     15 C15       -11.1957   -3.0389   58.7204 C.3     1  ZINC001053433946    0.0800
     16 C16       -12.5779   -2.8059   58.0957 C.3     1  ZINC001053433946   -0.0100
     17 N17       -12.2693   -3.9674   57.2311 N.3     1  ZINC001053433946   -0.4700
     18 C18       -13.4351   -4.8518   57.1016 C.3     1  ZINC001053433946    0.0200
     19 C19       -14.0858   -4.6407   55.7330 C.3     1  ZINC001053433946   -0.1200
     20 H20       -13.3126   -4.5862   54.9667 H       1  ZINC001053433946    0.0800
     21 C21       -15.0272   -5.8100   55.4280 C.3     1  ZINC001053433946   -0.1200
     22 C22       -15.7308   -5.5496   54.0926 C.3     1  ZINC001053433946   -0.1600
     23 C23       -16.4713   -4.2118   54.1672 C.3     1  ZINC001053433946    0.0600
     24 O24       -15.5433   -3.1722   54.4842 O.3     1  ZINC001053433946   -0.3800
     25 C25       -14.8885   -3.3372   55.7437 C.3     1  ZINC001053433946    0.0700
     26 C26       -11.3161   -4.4899   58.2363 C.3     1  ZINC001053433946    0.0200
     27 C27       -11.1800   -2.9034   60.2477 C.3     1  ZINC001053433946    0.1000
     28 H28        -8.4074   -1.3917   63.4196 H       1  ZINC001053433946    0.4000
     29 H29        -8.5995   -0.3439   62.1203 H       1  ZINC001053433946    0.4000
     30 H30       -12.6909    0.3109   63.8164 H       1  ZINC001053433946    0.1100
     31 H31       -12.6932    2.0488   63.1990 H       1  ZINC001053433946    0.1200
     32 H32       -10.1426    0.3660   60.1173 H       1  ZINC001053433946    0.1000
     33 H33        -9.0380   -1.0303   60.2087 H       1  ZINC001053433946    0.0800
     34 H34       -11.1089   -0.4758   58.0340 H       1  ZINC001053433946    0.0600
     35 H35        -9.3382   -0.4185   57.8571 H       1  ZINC001053433946    0.1100
     36 H36       -13.4057   -2.9777   58.7836 H       1  ZINC001053433946    0.0800
     37 H37       -12.6620   -1.8642   57.5532 H       1  ZINC001053433946    0.0900
     38 H38       -13.1160   -5.8898   57.1960 H       1  ZINC001053433946    0.0500
     39 H39       -14.1555   -4.6204   57.8861 H       1  ZINC001053433946    0.0800
     40 H40       -14.4522   -6.7337   55.3632 H       1  ZINC001053433946    0.0700
     41 H41       -15.7702   -5.8962   56.2209 H       1  ZINC001053433946    0.0700
     42 H42       -14.9916   -5.5127   53.2924 H       1  ZINC001053433946    0.0700
     43 H43       -16.4438   -6.3499   53.8944 H       1  ZINC001053433946    0.0700
     44 H44       -16.9386   -4.0009   53.2053 H       1  ZINC001053433946    0.0900
     45 H45       -17.2378   -4.2630   54.9404 H       1  ZINC001053433946    0.0500
     46 H46       -15.6335   -3.3773   56.5383 H       1  ZINC001053433946    0.0500
     47 H47       -14.2168   -2.4964   55.9170 H       1  ZINC001053433946    0.1000
     48 H48       -10.3970   -4.8873   57.8057 H       1  ZINC001053433946    0.1000
     49 H49       -11.7703   -5.1604   58.9659 H       1  ZINC001053433946    0.0900
     50 H50       -10.3307   -3.4503   60.6573 H       1  ZINC001053433946    0.0800
     51 H51       -12.1075   -3.2984   60.6621 H       1  ZINC001053433946    0.1000
@<TRIPOS>BOND
     1     1     2   am
     2     1    28    1
     3     1    29    1
     4     2     3    2
     5     2     4    1
     6     4     5    1
     7     4     7    1
     8     4     6    1
     9     6     7    1
    10     6    30    1
    11     6    31    1
    12     7     8    1
    13     7     9    1
    14     9    10    2
    15     9    11   am
    16    11    27    1
    17    11    12    1
    18    12    13    1
    19    12    32    1
    20    12    33    1
    21    13    14    1
    22    13    34    1
    23    13    35    1
    24    14    15    1
    25    15    26    1
    26    15    16    1
    27    15    27    1
    28    16    17    1
    29    16    36    1
    30    16    37    1
    31    17    18    1
    32    17    26    1
    33    18    19    1
    34    18    38    1
    35    18    39    1
    36    19    20    1
    37    19    25    1
    38    19    21    1
    39    21    22    1
    40    21    40    1
    41    21    41    1
    42    22    23    1
    43    22    42    1
    44    22    43    1
    45    23    24    1
    46    23    44    1
    47    23    45    1
    48    24    25    1
    49    25    46    1
    50    25    47    1
    51    26    48    1
    52    26    49    1
    53    27    50    1
    54    27    51    1
@<TRIPOS>SUBSTRUCTURE
     1 ZINC001053433946        1 TEMP              0 ****  ****    0 ROOT


##########                                Name:    ZINC000185180600
##########                DOCK_Rotatable_Bonds:                   7
##########                         Heavy_Atoms:                  26
##########                    Molecular_Weight:             395.953
##########                DOCK_Rotatable_Bonds:                   7
##########                       Formal_Charge:          0.00999977
##########                     HBond_Acceptors:                   7
##########                        HBond_Donors:                   0
##########                         Heavy_Atoms:                  26
##########                          Grid_Score:          -29.576706
##########                     Grid_vdw_energy:          -28.396807
##########                      Grid_es_energy:           -1.179899
##########           Internal_energy_repulsive:           17.700069

@<TRIPOS>MOLECULE
ZINC000185180600
 52 53 1 0 0
SMALL
USER_CHARGES


@<TRIPOS>ATOM
      1 C1        -13.8280    1.2963   49.1154 C.3     1  ZINC000185180600   -0.1500
      2 C2        -12.3895    1.8022   48.9890 C.3     1  ZINC000185180600   -0.0900
      3 C3        -12.3170    2.8639   47.8897 C.3     1  ZINC000185180600   -0.1500
      4 C4        -11.9453    2.4141   50.3191 C.3     1  ZINC000185180600   -0.1300
      5 C5        -11.7957    1.3074   51.3648 C.3     1  ZINC000185180600    0.1300
      6 H6        -11.8799    0.3350   50.8795 H       1  ZINC000185180600    0.1100
      7 C7        -12.8966    1.4487   52.4180 C.3     1  ZINC000185180600   -0.1600
      8 N8        -10.4853    1.4192   52.0101 N.am    1  ZINC000185180600   -0.6000
      9 C9        -10.0762    2.6855   52.6230 C.3     1  ZINC000185180600    0.0700
     10 C10        -9.6560    0.3573   52.0400 C.2     1  ZINC000185180600    0.5400
     11 O11        -9.9939   -0.6906   51.5314 O.2     1  ZINC000185180600   -0.5300
     12 C12        -8.3087    0.4718   52.7055 C.3     1  ZINC000185180600   -0.5000
     13 S13        -7.1002    1.1181   51.5169 S.o     1  ZINC000185180600    1.3200
     14 O14        -6.9454    0.1938   50.4488 O.2     1  ZINC000185180600   -0.8000
     15 C15        -5.5687    1.1833   52.4869 C.3     1  ZINC000185180600   -0.3900
     16 C16        -4.4501    1.7090   51.6248 C.2     1  ZINC000185180600    0.1000
     17 N17        -3.9041    1.0853   50.6120 N.2     1  ZINC000185180600   -0.2800
     18 N18        -2.9038    1.9082   50.0783 N.pl3   1  ZINC000185180600   -0.3200
     19 C19        -2.0832    1.6050   48.9826 C.ar    1  ZINC000185180600    0.1700
     20 C20        -1.7291    0.2881   48.7225 C.ar    1  ZINC000185180600   -0.1300
     21 C21        -0.9206   -0.0081   47.6427 C.ar    1  ZINC000185180600   -0.0800
     22 C22        -0.4630    1.0068   46.8206 C.ar    1  ZINC000185180600   -0.0500
     23 Cl23        0.5531    0.6314   45.4640 Cl      1  ZINC000185180600   -0.0600
     24 C24        -0.8147    2.3203   47.0778 C.ar    1  ZINC000185180600   -0.0800
     25 C25        -1.6279    2.6207   48.1528 C.ar    1  ZINC000185180600   -0.1100
     26 C26        -2.8700    3.0467   50.8070 C.2     1  ZINC000185180600    0.0600
     27 C27        -3.8205    2.9506   51.7655 C.2     1  ZINC000185180600   -0.2500
     28 H28       -14.1445    0.8604   48.1677 H       1  ZINC000185180600    0.0500
     29 H29       -13.8797    0.5400   49.8984 H       1  ZINC000185180600    0.0600
     30 H30       -14.4846    2.1283   49.3699 H       1  ZINC000185180600    0.0500
     31 H31       -11.7329    0.9702   48.7344 H       1  ZINC000185180600    0.0700
     32 H32       -12.5535    2.4081   46.9281 H       1  ZINC000185180600    0.0500
     33 H33       -13.0344    3.6566   48.1022 H       1  ZINC000185180600    0.0500
     34 H34       -11.3116    3.2833   47.8554 H       1  ZINC000185180600    0.0500
     35 H35       -10.9888    2.9192   50.1851 H       1  ZINC000185180600    0.0700
     36 H36       -12.6921    3.1333   50.6555 H       1  ZINC000185180600    0.0800
     37 H37       -12.8123    2.4211   52.9034 H       1  ZINC000185180600    0.0600
     38 H38       -13.8715    1.3655   51.9378 H       1  ZINC000185180600    0.0700
     39 H39       -12.7900    0.6602   53.1631 H       1  ZINC000185180600    0.0600
     40 H40       -10.3887    2.7013   53.6672 H       1  ZINC000185180600    0.0600
     41 H41        -8.9921    2.7829   52.5667 H       1  ZINC000185180600    0.0700
     42 H42       -10.5437    3.5142   52.0913 H       1  ZINC000185180600    0.0800
     43 H43        -8.3800    1.1497   53.5561 H       1  ZINC000185180600    0.1500
     44 H44        -7.9890   -0.5116   53.0503 H       1  ZINC000185180600    0.1200
     45 H45        -5.7085    1.8433   53.3430 H       1  ZINC000185180600    0.1400
     46 H46        -5.3175    0.1821   52.8372 H       1  ZINC000185180600    0.1000
     47 H47        -2.0854   -0.5042   49.3642 H       1  ZINC000185180600    0.1400
     48 H48        -0.6449   -1.0324   47.4400 H       1  ZINC000185180600    0.1500
     49 H49        -0.4560    3.1106   46.4350 H       1  ZINC000185180600    0.1400
     50 H50        -1.9020    3.6460   48.3532 H       1  ZINC000185180600    0.1500
     51 H51        -2.2066    3.8844   50.6495 H       1  ZINC000185180600    0.1800
     52 H52        -4.0477    3.6972   52.5119 H       1  ZINC000185180600    0.1700
@<TRIPOS>BOND
     1     1     2    1
     2     1    28    1
     3     1    29    1
     4     1    30    1
     5     2     3    1
     6     2     4    1
     7     2    31    1
     8     3    32    1
     9     3    33    1
    10     3    34    1
    11     4     5    1
    12     4    35    1
    13     4    36    1
    14     5     6    1
    15     5     7    1
    16     5     8    1
    17     7    37    1
    18     7    38    1
    19     7    39    1
    20     8     9    1
    21     8    10   am
    22     9    40    1
    23     9    41    1
    24     9    42    1
    25    10    11    2
    26    10    12    1
    27    12    13    1
    28    12    43    1
    29    12    44    1
    30    13    14    2
    31    13    15    1
    32    15    16    1
    33    15    45    1
    34    15    46    1
    35    16    27    1
    36    16    17    2
    37    17    18    1
    38    18    19    1
    39    18    26    1
    40    19    25   ar
    41    19    20   ar
    42    20    21   ar
    43    20    47    1
    44    21    22   ar
    45    21    48    1
    46    22    23    1
    47    22    24   ar
    48    24    25   ar
    49    24    49    1
    50    25    50    1
    51    26    27    2
    52    26    51    1
    53    27    52    1
@<TRIPOS>SUBSTRUCTURE
     1 ZINC000185180600        1 TEMP              0 ****  ****    0 ROOT


##########                                Name:    ZINC000963156778
##########                DOCK_Rotatable_Bonds:                   6
##########                         Heavy_Atoms:                  24
##########                    Molecular_Weight:             349.414
##########                DOCK_Rotatable_Bonds:                   6
##########                       Formal_Charge:         -0.00999984
##########                     HBond_Acceptors:                   9
##########                        HBond_Donors:                   2
##########                         Heavy_Atoms:                  24
##########                          Grid_Score:          -29.567902
##########                     Grid_vdw_energy:          -24.340239
##########                      Grid_es_energy:           -5.227663
##########           Internal_energy_repulsive:            8.365252

@<TRIPOS>MOLECULE
ZINC000963156778
 43 46 1 0 0
SMALL
USER_CHARGES


@<TRIPOS>ATOM
      1 C1        -11.3448    0.0252   53.1500 C.3     1  ZINC000963156778   -0.0800
      2 C2         -9.8920    0.0710   52.7516 C.2     1  ZINC000963156778    0.0300
      3 C3         -9.0351    1.0427   53.1429 C.2     1  ZINC000963156778   -0.2600
      4 C4         -9.3235    2.2345   54.0190 C.3     1  ZINC000963156778    0.1300
      5 N5         -8.7686    2.0026   55.3593 N.3     1  ZINC000963156778   -0.5000
      6 C6         -9.6191    1.0613   56.1321 C.3     1  ZINC000963156778    0.0600
      7 C7         -9.2547    1.3298   57.6080 C.3     1  ZINC000963156778   -0.1700
      8 H8         -8.7764    0.5239   58.1648 H       1  ZINC000963156778    0.1200
      9 C9         -8.7037    2.7704   57.6291 C.3     1  ZINC000963156778   -0.1700
     10 H10        -7.8235    3.0401   58.2129 H       1  ZINC000963156778    0.1200
     11 C11        -8.7816    3.2512   56.1641 C.3     1  ZINC000963156778    0.0600
     12 C12       -10.0428    2.4028   58.3620 C.3     1  ZINC000963156778    0.1200
     13 H13       -10.9727    2.7557   57.9161 H       1  ZINC000963156778    0.1400
     14 N14       -10.0214    2.3599   59.8262 N.am    1  ZINC000963156778   -0.7000
     15 C15       -11.0248    1.7607   60.4975 C.2     1  ZINC000963156778    0.5100
     16 O16       -11.9446    1.2558   59.8894 O.2     1  ZINC000963156778   -0.5000
     17 C17       -11.0037    1.7181   62.0038 C.3     1  ZINC000963156778   -0.1300
     18 C18       -11.1076    0.2661   62.4744 C.3     1  ZINC000963156778   -0.1100
     19 H19       -12.0528   -0.1729   62.1546 H       1  ZINC000963156778    0.1300
     20 C20       -10.9605    0.1804   64.0073 C.3     1  ZINC000963156778   -0.1600
     21 C21        -9.7239   -0.6704   64.1979 C.2     1  ZINC000963156778    0.5300
     22 O22        -9.2479   -0.9880   65.2667 O.2     1  ZINC000963156778   -0.4800
     23 N23        -9.2389   -1.0174   62.9992 N.am    1  ZINC000963156778   -0.6900
     24 C24        -9.9410   -0.5464   61.9566 C.2     1  ZINC000963156778    0.5200
     25 O25        -9.6790   -0.7399   60.7889 O.2     1  ZINC000963156778   -0.4500
     26 S26        -7.5400    0.6049   52.4112 S.3     1  ZINC000963156778    0.4500
     27 N27        -8.0762   -0.6886   51.7119 N.2     1  ZINC000963156778   -0.2900
     28 N28        -9.3133   -0.8333   51.9882 N.2     1  ZINC000963156778   -0.2400
     29 H29       -11.4489   -0.5332   54.0803 H       1  ZINC000963156778    0.0900
     30 H30       -11.7147    1.0405   53.2924 H       1  ZINC000963156778    0.0800
     31 H31       -11.9214   -0.4650   52.3656 H       1  ZINC000963156778    0.0800
     32 H32        -8.8661    3.1237   53.5852 H       1  ZINC000963156778    0.1000
     33 H33       -10.4014    2.3793   54.0921 H       1  ZINC000963156778    0.0700
     34 H34       -10.6744    1.2709   55.9569 H       1  ZINC000963156778    0.0600
     35 H35        -9.3859    0.0308   55.8644 H       1  ZINC000963156778    0.0800
     36 H36        -7.9177    3.8695   55.9206 H       1  ZINC000963156778    0.1000
     37 H37        -9.7057    3.8036   55.9940 H       1  ZINC000963156778    0.0500
     38 H38        -9.2851    2.7628   60.3125 H       1  ZINC000963156778    0.4000
     39 H39       -10.0718    2.1518   62.3665 H       1  ZINC000963156778    0.1000
     40 H40       -11.8463    2.2882   62.3952 H       1  ZINC000963156778    0.1200
     41 H41       -10.8132    1.1724   64.4345 H       1  ZINC000963156778    0.1200
     42 H42       -11.8312   -0.3035   64.4498 H       1  ZINC000963156778    0.1300
     43 H43        -8.4458   -1.5655   62.8924 H       1  ZINC000963156778    0.4200
@<TRIPOS>BOND
     1     1     2    1
     2     1    29    1
     3     1    30    1
     4     1    31    1
     5     2    28    1
     6     2     3    2
     7     3     4    1
     8     3    26    1
     9     4     5    1
    10     4    32    1
    11     4    33    1
    12     5    11    1
    13     5     6    1
    14     6     7    1
    15     6    34    1
    16     6    35    1
    17     7     8    1
    18     7    12    1
    19     7     9    1
    20     9    10    1
    21     9    11    1
    22     9    12    1
    23    11    36    1
    24    11    37    1
    25    12    13    1
    26    12    14    1
    27    14    15   am
    28    14    38    1
    29    15    16    2
    30    15    17    1
    31    17    18    1
    32    17    39    1
    33    17    40    1
    34    18    19    1
    35    18    24    1
    36    18    20    1
    37    20    21    1
    38    20    41    1
    39    20    42    1
    40    21    22    2
    41    21    23   am
    42    23    24   am
    43    23    43    1
    44    24    25    2
    45    26    27    1
    46    27    28    2
@<TRIPOS>SUBSTRUCTURE
     1 ZINC000963156778        1 TEMP              0 ****  ****    0 ROOT


##########                                Name:    ZINC000460972051
##########                DOCK_Rotatable_Bonds:                  10
##########                         Heavy_Atoms:                  29
##########                    Molecular_Weight:             417.572
##########                DOCK_Rotatable_Bonds:                  10
##########                       Formal_Charge:         3.31551e-07
##########                     HBond_Acceptors:                   7
##########                        HBond_Donors:                   2
##########                         Heavy_Atoms:                  29
##########                          Grid_Score:          -29.524876
##########                     Grid_vdw_energy:          -29.363277
##########                      Grid_es_energy:           -0.161597
##########           Internal_energy_repulsive:           33.324921

@<TRIPOS>MOLECULE
ZINC000460972051
 60 61 1 0 0
SMALL
USER_CHARGES


@<TRIPOS>ATOM
      1 C1        -12.2132    1.6214   56.2871 C.3     1  ZINC000460972051   -0.1800
      2 C2        -11.2205    2.2240   57.2834 C.3     1  ZINC000460972051    0.1000
      3 N3         -9.8663    1.7688   56.9592 N.am    1  ZINC000460972051   -0.6200
      4 C4         -9.3540    0.6851   57.5754 C.2     1  ZINC000460972051    0.7100
      5 O5         -8.2306    0.3065   57.3053 O.2     1  ZINC000460972051   -0.5800
      6 N6        -10.0870    0.0212   58.4910 N.am    1  ZINC000460972051   -0.7400
      7 C7         -9.5296   -1.1558   59.1621 C.3     1  ZINC000460972051    0.2000
      8 H8         -8.4959   -1.2982   58.8467 H       1  ZINC000460972051    0.1100
      9 C9         -9.5767   -0.9490   60.6773 C.3     1  ZINC000460972051    0.1100
     10 N10       -10.9695   -0.8019   61.1070 N.am    1  ZINC000460972051   -1.1200
     11 S11       -11.4168    0.4936   62.0365 S.o2    1  ZINC000460972051    2.7000
     12 O12       -10.9815    1.6547   61.3426 O.2     1  ZINC000460972051   -0.9500
     13 O13       -12.7703    0.2722   62.4085 O.2     1  ZINC000460972051   -0.9600
     14 C14       -10.4739    0.4193   63.5231 C.ar    1  ZINC000460972051   -0.6900
     15 C15        -9.7772   -0.7307   63.8429 C.ar    1  ZINC000460972051   -0.0100
     16 C16        -9.0373   -0.7888   65.0093 C.ar    1  ZINC000460972051   -0.1500
     17 C17        -8.9939    0.3032   65.8554 C.ar    1  ZINC000460972051   -0.0200
     18 C18        -8.1878    0.2396   67.1271 C.3     1  ZINC000460972051   -0.1300
     19 C19        -9.6897    1.4541   65.5348 C.ar    1  ZINC000460972051   -0.1500
     20 C20       -10.4263    1.5136   64.3668 C.ar    1  ZINC000460972051    0.0300
     21 C21       -11.1847    2.7681   64.0174 C.3     1  ZINC000460972051   -0.1700
     22 C22       -10.3388   -2.3732   58.7958 C.ar    1  ZINC000460972051   -0.1000
     23 C23       -11.6808   -2.2447   58.4900 C.ar    1  ZINC000460972051   -0.1000
     24 C24       -12.4231   -3.3614   58.1540 C.ar    1  ZINC000460972051   -0.1200
     25 C25       -11.8233   -4.6065   58.1234 C.ar    1  ZINC000460972051   -0.1200
     26 C26       -10.4812   -4.7348   58.4283 C.ar    1  ZINC000460972051   -0.1200
     27 C27        -9.7379   -3.6175   58.7602 C.ar    1  ZINC000460972051   -0.1000
     28 C28        -9.0688    2.4916   55.9653 C.3     1  ZINC000460972051    0.1500
     29 C29        -9.0300    1.6907   54.6622 C.3     1  ZINC000460972051   -0.1600
     30 C30        -9.6990    3.8610   55.7036 C.3     1  ZINC000460972051   -0.1600
     31 H31       -13.2207    1.9602   56.5282 H       1  ZINC000460972051    0.0700
     32 H32       -11.9542    1.9412   55.2778 H       1  ZINC000460972051    0.0600
     33 H33       -12.1716    0.5339   56.3456 H       1  ZINC000460972051    0.0700
     34 H34       -11.2620    3.3117   57.2249 H       1  ZINC000460972051    0.0700
     35 H35       -11.4795    1.9043   58.2928 H       1  ZINC000460972051    0.0900
     36 H36       -10.9837    0.3226   58.7056 H       1  ZINC000460972051    0.4000
     37 H37        -9.1318   -1.8104   61.1755 H       1  ZINC000460972051    0.0900
     38 H38        -9.0189   -0.0498   60.9387 H       1  ZINC000460972051    0.0900
     39 H39       -11.6298   -1.4633   60.8469 H       1  ZINC000460972051    0.4200
     40 H40        -9.8111   -1.5840   63.1818 H       1  ZINC000460972051    0.1400
     41 H41        -8.4935   -1.6878   65.2596 H       1  ZINC000460972051    0.1300
     42 H42        -7.1716    0.5814   66.9305 H       1  ZINC000460972051    0.0800
     43 H43        -8.6470    0.8793   67.8807 H       1  ZINC000460972051    0.0700
     44 H44        -8.1618   -0.7879   67.4897 H       1  ZINC000460972051    0.0700
     45 H45        -9.6555    2.3075   66.1957 H       1  ZINC000460972051    0.1300
     46 H46       -10.5847    3.3794   63.3433 H       1  ZINC000460972051    0.0900
     47 H47       -12.1221    2.5018   63.5291 H       1  ZINC000460972051    0.1000
     48 H48       -11.3957    3.3304   64.9270 H       1  ZINC000460972051    0.0900
     49 H49       -12.1494   -1.2720   58.5138 H       1  ZINC000460972051    0.1200
     50 H50       -13.4717   -3.2611   57.9158 H       1  ZINC000460972051    0.1200
     51 H51       -12.4034   -5.4791   57.8616 H       1  ZINC000460972051    0.1200
     52 H52       -10.0126   -5.7076   58.4048 H       1  ZINC000460972051    0.1200
     53 H53        -8.6892   -3.7178   58.9984 H       1  ZINC000460972051    0.1200
     54 H54        -8.0541    2.6243   56.3405 H       1  ZINC000460972051    0.1000
     55 H55        -8.5811    0.7151   54.8485 H       1  ZINC000460972051    0.0600
     56 H56       -10.0447    1.5579   54.2870 H       1  ZINC000460972051    0.0600
     57 H57        -8.4367    2.2285   53.9227 H       1  ZINC000460972051    0.0700
     58 H58        -9.7267    4.4316   56.6319 H       1  ZINC000460972051    0.0600
     59 H59        -9.1057    4.3988   54.9642 H       1  ZINC000460972051    0.0700
     60 H60       -10.7137    3.7282   55.3284 H       1  ZINC000460972051    0.0600
@<TRIPOS>BOND
     1     1     2    1
     2     1    31    1
     3     1    32    1
     4     1    33    1
     5     2     3    1
     6     2    34    1
     7     2    35    1
     8     3     4   am
     9     3    28    1
    10     4     5    2
    11     4     6   am
    12     6     7    1
    13     6    36    1
    14     7     8    1
    15     7     9    1
    16     7    22    1
    17     9    10    1
    18     9    37    1
    19     9    38    1
    20    10    11   am
    21    10    39    1
    22    11    12    2
    23    11    13    2
    24    11    14    1
    25    14    20   ar
    26    14    15   ar
    27    15    16   ar
    28    15    40    1
    29    16    17   ar
    30    16    41    1
    31    17    18    1
    32    17    19   ar
    33    18    42    1
    34    18    43    1
    35    18    44    1
    36    19    20   ar
    37    19    45    1
    38    20    21    1
    39    21    46    1
    40    21    47    1
    41    21    48    1
    42    22    27   ar
    43    22    23   ar
    44    23    24   ar
    45    23    49    1
    46    24    25   ar
    47    24    50    1
    48    25    26   ar
    49    25    51    1
    50    26    27   ar
    51    26    52    1
    52    27    53    1
    53    28    29    1
    54    28    30    1
    55    28    54    1
    56    29    55    1
    57    29    56    1
    58    29    57    1
    59    30    58    1
    60    30    59    1
    61    30    60    1
@<TRIPOS>SUBSTRUCTURE
     1 ZINC000460972051        1 TEMP              0 ****  ****    0 ROOT


##########                                Name:    ZINC001015955459
##########                DOCK_Rotatable_Bonds:                   6
##########                         Heavy_Atoms:                  24
##########                    Molecular_Weight:             347.844
##########                DOCK_Rotatable_Bonds:                   6
##########                       Formal_Charge:          -0.0200002
##########                     HBond_Acceptors:                   6
##########                        HBond_Donors:                   1
##########                         Heavy_Atoms:                  24
##########                          Grid_Score:          -29.523806
##########                     Grid_vdw_energy:          -29.508104
##########                      Grid_es_energy:           -0.015702
##########           Internal_energy_repulsive:           14.829669

@<TRIPOS>MOLECULE
ZINC001015955459
 46 48 1 0 0
SMALL
USER_CHARGES


@<TRIPOS>ATOM
      1 C1        -13.3883   -2.5220   56.0532 C.3     1  ZINC001015955459   -0.1500
      2 C2        -14.3748   -3.2270   56.9864 C.3     1  ZINC001015955459   -0.0300
      3 C3        -15.7963   -2.7517   56.6789 C.3     1  ZINC001015955459   -0.1500
      4 C4        -14.2871   -4.7168   56.7772 C.2     1  ZINC001015955459    0.0600
      5 C5        -13.3205   -5.5465   57.2563 C.2     1  ZINC001015955459   -0.0800
      6 C6        -12.1604   -5.1570   58.0783 C.2     1  ZINC001015955459    0.6100
      7 O7        -11.3124   -5.9811   58.3627 O.2     1  ZINC001015955459   -0.5300
      8 N8        -12.0395   -3.8876   58.5147 N.am    1  ZINC001015955459   -0.7100
      9 C9        -10.8857   -3.5000   59.3301 C.3     1  ZINC001015955459    0.1400
     10 H10       -10.5943   -4.3201   59.9864 H       1  ZINC001015955459    0.1000
     11 C11        -9.7042   -3.0910   58.4265 C.3     1  ZINC001015955459   -0.1300
     12 C12        -9.4158   -1.6176   58.7859 C.3     1  ZINC001015955459    0.0200
     13 N13        -9.9488   -1.4570   60.1632 N.3     1  ZINC001015955459   -0.4900
     14 C14       -10.2065   -0.0429   60.4664 C.3     1  ZINC001015955459    0.0800
     15 C15       -10.6259    0.0935   61.9074 C.ar    1  ZINC001015955459   -0.1100
     16 C16       -11.9081    0.5061   62.2179 C.ar    1  ZINC001015955459   -0.1100
     17 C17       -12.2950    0.6267   63.5398 C.ar    1  ZINC001015955459   -0.1000
     18 C18       -11.3966    0.3452   64.5514 C.ar    1  ZINC001015955459   -0.1100
     19 C19       -10.1113   -0.0627   64.2413 C.ar    1  ZINC001015955459   -0.0300
     20 Cl20       -8.9820   -0.4160   65.5116 Cl      1  ZINC001015955459   -0.0700
     21 C21        -9.7264   -0.1884   62.9186 C.ar    1  ZINC001015955459   -0.1000
     22 C22       -11.2143   -2.2401   60.1596 C.3     1  ZINC001015955459    0.0100
     23 N23       -13.6232   -6.8023   56.8290 N.2     1  ZINC001015955459   -0.4600
     24 C24       -14.7201   -6.7477   56.1344 C.2     1  ZINC001015955459    0.1800
     25 O25       -15.1479   -5.4783   56.0831 O.3     1  ZINC001015955459   -0.1900
     26 H26       -13.6347   -2.7588   55.0183 H       1  ZINC001015955459    0.0600
     27 H27       -13.4517   -1.4444   56.2046 H       1  ZINC001015955459    0.0700
     28 H28       -12.3757   -2.8606   56.2724 H       1  ZINC001015955459    0.0600
     29 H29       -14.1285   -2.9903   58.0215 H       1  ZINC001015955459    0.1300
     30 H30       -16.4991   -3.2539   57.3437 H       1  ZINC001015955459    0.0600
     31 H31       -15.8597   -1.6740   56.8302 H       1  ZINC001015955459    0.0700
     32 H32       -16.0426   -2.9883   55.6439 H       1  ZINC001015955459    0.0600
     33 H33       -12.7165   -3.2305   58.2888 H       1  ZINC001015955459    0.4100
     34 H34        -8.8329   -3.7103   58.6393 H       1  ZINC001015955459    0.0800
     35 H35        -9.9828   -3.1786   57.3763 H       1  ZINC001015955459    0.0700
     36 H36        -8.3429   -1.4252   58.7686 H       1  ZINC001015955459    0.0900
     37 H37        -9.9337   -0.9499   58.0975 H       1  ZINC001015955459    0.0500
     38 H38        -9.2992    0.5366   60.2956 H       1  ZINC001015955459    0.0900
     39 H39       -11.0018    0.3282   59.8199 H       1  ZINC001015955459    0.0900
     40 H40       -12.6091    0.7305   61.4276 H       1  ZINC001015955459    0.1300
     41 H41       -13.2981    0.9451   63.7817 H       1  ZINC001015955459    0.1300
     42 H42       -11.6977    0.4439   65.5839 H       1  ZINC001015955459    0.1300
     43 H43        -8.7231   -0.5064   62.6758 H       1  ZINC001015955459    0.1300
     44 H44       -12.0134   -1.6704   59.6853 H       1  ZINC001015955459    0.0700
     45 H45       -11.4949   -2.5167   61.1758 H       1  ZINC001015955459    0.0900
     46 H46       -15.2074   -7.5910   55.6679 H       1  ZINC001015955459    0.2600
@<TRIPOS>BOND
     1     1     2    1
     2     1    26    1
     3     1    27    1
     4     1    28    1
     5     2     3    1
     6     2     4    1
     7     2    29    1
     8     3    30    1
     9     3    31    1
    10     3    32    1
    11     4    25    1
    12     4     5    2
    13     5     6    1
    14     5    23    1
    15     6     7    2
    16     6     8   am
    17     8     9    1
    18     8    33    1
    19     9    10    1
    20     9    22    1
    21     9    11    1
    22    11    12    1
    23    11    34    1
    24    11    35    1
    25    12    13    1
    26    12    36    1
    27    12    37    1
    28    13    14    1
    29    13    22    1
    30    14    15    1
    31    14    38    1
    32    14    39    1
    33    15    21   ar
    34    15    16   ar
    35    16    17   ar
    36    16    40    1
    37    17    18   ar
    38    17    41    1
    39    18    19   ar
    40    18    42    1
    41    19    20    1
    42    19    21   ar
    43    21    43    1
    44    22    44    1
    45    22    45    1
    46    23    24    2
    47    24    25    1
    48    24    46    1
@<TRIPOS>SUBSTRUCTURE
     1 ZINC001015955459        1 TEMP              0 ****  ****    0 ROOT


##########                                Name:    ZINC000269287897
##########                DOCK_Rotatable_Bonds:                   8
##########                         Heavy_Atoms:                  23
##########                    Molecular_Weight:             385.301
##########                DOCK_Rotatable_Bonds:                   8
##########                       Formal_Charge:           0.0300002
##########                     HBond_Acceptors:                   5
##########                        HBond_Donors:                   1
##########                         Heavy_Atoms:                  23
##########                          Grid_Score:          -29.503851
##########                     Grid_vdw_energy:          -28.163803
##########                      Grid_es_energy:           -1.340048
##########           Internal_energy_repulsive:           10.915973

@<TRIPOS>MOLECULE
ZINC000269287897
 48 49 1 0 0
SMALL
USER_CHARGES


@<TRIPOS>ATOM
      1 C1        -16.4662   -7.9480   53.0945 C.3     1  ZINC000269287897    0.0300
      2 O2        -15.5928   -7.0444   52.4142 O.3     1  ZINC000269287897   -0.3800
      3 C3        -16.0396   -5.6872   52.4223 C.3     1  ZINC000269287897    0.0600
      4 C4        -16.1587   -5.1981   53.8672 C.3     1  ZINC000269287897    0.0600
      5 O5        -14.8941   -5.3275   54.5197 O.3     1  ZINC000269287897   -0.3800
      6 C6        -14.9085   -4.9454   55.8965 C.3     1  ZINC000269287897    0.0700
      7 C7        -13.8574   -3.8597   56.1356 C.3     1  ZINC000269287897   -0.1000
      8 H8        -12.8985   -4.1453   55.7030 H       1  ZINC000269287897    0.1000
      9 C9        -14.3337   -2.4921   55.5786 C.3     1  ZINC000269287897   -0.1200
     10 C10       -13.5711   -1.4771   56.4560 C.3     1  ZINC000269287897    0.1000
     11 N11       -13.1996   -2.1675   57.6997 N.am    1  ZINC000269287897   -0.6300
     12 C12       -12.5040   -1.6278   58.7201 C.2     1  ZINC000269287897    0.7300
     13 O13       -12.1287   -0.4730   58.6564 O.2     1  ZINC000269287897   -0.5600
     14 N14       -12.2243   -2.3681   59.8110 N.am    1  ZINC000269287897   -0.6900
     15 C15       -11.5017   -1.8075   60.8708 C.ar    1  ZINC000269287897    0.1800
     16 C16       -10.1152   -1.8728   60.8790 C.ar    1  ZINC000269287897   -0.0600
     17 C17        -9.3853   -2.5477   59.7463 C.3     1  ZINC000269287897   -0.1000
     18 C18        -9.4048   -1.3182   61.9261 C.ar    1  ZINC000269287897   -0.0900
     19 C19       -10.0732   -0.6983   62.9655 C.ar    1  ZINC000269287897   -0.0800
     20 C20        -9.2948   -0.0946   64.1060 C.3     1  ZINC000269287897   -0.1100
     21 C21       -11.4546   -0.6308   62.9610 C.ar    1  ZINC000269287897   -0.0900
     22 C22       -12.1708   -1.1792   61.9144 C.ar    1  ZINC000269287897   -0.1000
     23 Br23      -14.0595   -1.0861   61.9082 Br      1  ZINC000269287897   -0.0500
     24 C24       -13.7144   -3.5485   57.6464 C.3     1  ZINC000269287897    0.1400
     25 H25       -16.5599   -7.6465   54.1378 H       1  ZINC000269287897    0.0400
     26 H26       -17.4480   -7.9298   52.6214 H       1  ZINC000269287897    0.0400
     27 H27       -16.0568   -8.9569   53.0433 H       1  ZINC000269287897    0.0900
     28 H28       -15.3227   -5.0654   51.8863 H       1  ZINC000269287897    0.0600
     29 H29       -17.0126   -5.6221   51.9353 H       1  ZINC000269287897    0.0600
     30 H30       -16.4651   -4.1521   53.8726 H       1  ZINC000269287897    0.0700
     31 H31       -16.9020   -5.7971   54.3933 H       1  ZINC000269287897    0.0600
     32 H32       -15.8945   -4.5599   56.1562 H       1  ZINC000269287897    0.0600
     33 H33       -14.6826   -5.8128   56.5167 H       1  ZINC000269287897    0.0500
     34 H34       -14.0531   -2.3836   54.5309 H       1  ZINC000269287897    0.0900
     35 H35       -15.4104   -2.3783   55.7043 H       1  ZINC000269287897    0.0800
     36 H36       -12.6739   -1.1392   55.9373 H       1  ZINC000269287897    0.0700
     37 H37       -14.2137   -0.6262   56.6821 H       1  ZINC000269287897    0.0700
     38 H38       -12.5236   -3.2894   59.8617 H       1  ZINC000269287897    0.4100
     39 H39        -9.0412   -1.7955   59.0364 H       1  ZINC000269287897    0.0900
     40 H40        -8.5286   -3.0941   60.1405 H       1  ZINC000269287897    0.0600
     41 H41       -10.0584   -3.2415   59.2426 H       1  ZINC000269287897    0.0600
     42 H42        -8.3261   -1.3691   61.9328 H       1  ZINC000269287897    0.1300
     43 H43        -9.0621    0.9453   63.8768 H       1  ZINC000269287897    0.0700
     44 H44        -9.8907   -0.1410   65.0175 H       1  ZINC000269287897    0.0700
     45 H45        -8.3686   -0.6513   64.2487 H       1  ZINC000269287897    0.0700
     46 H46       -11.9738   -0.1460   63.7744 H       1  ZINC000269287897    0.1400
     47 H47       -14.6845   -3.6110   58.1394 H       1  ZINC000269287897    0.0700
     48 H48       -13.0069   -4.2353   58.1110 H       1  ZINC000269287897    0.0900
@<TRIPOS>BOND
     1     1     2    1
     2     1    25    1
     3     1    26    1
     4     1    27    1
     5     2     3    1
     6     3     4    1
     7     3    28    1
     8     3    29    1
     9     4     5    1
    10     4    30    1
    11     4    31    1
    12     5     6    1
    13     6     7    1
    14     6    32    1
    15     6    33    1
    16     7     8    1
    17     7    24    1
    18     7     9    1
    19     9    10    1
    20     9    34    1
    21     9    35    1
    22    10    11    1
    23    10    36    1
    24    10    37    1
    25    11    12   am
    26    11    24    1
    27    12    13    2
    28    12    14   am
    29    14    15    1
    30    14    38    1
    31    15    22   ar
    32    15    16   ar
    33    16    17    1
    34    16    18   ar
    35    17    39    1
    36    17    40    1
    37    17    41    1
    38    18    19   ar
    39    18    42    1
    40    19    20    1
    41    19    21   ar
    42    20    43    1
    43    20    44    1
    44    20    45    1
    45    21    22   ar
    46    21    46    1
    47    22    23    1
    48    24    47    1
    49    24    48    1
@<TRIPOS>SUBSTRUCTURE
     1 ZINC000269287897        1 TEMP              0 ****  ****    0 ROOT


##########                                Name:    ZINC000464752079
##########                DOCK_Rotatable_Bonds:                   7
##########                         Heavy_Atoms:                  29
##########                    Molecular_Weight:             404.413
##########                DOCK_Rotatable_Bonds:                   7
##########                       Formal_Charge:         7.45058e-08
##########                     HBond_Acceptors:                   8
##########                        HBond_Donors:                   1
##########                         Heavy_Atoms:                  29
##########                          Grid_Score:          -29.500326
##########                     Grid_vdw_energy:          -27.351116
##########                      Grid_es_energy:           -2.149210
##########           Internal_energy_repulsive:           17.085722

@<TRIPOS>MOLECULE
ZINC000464752079
 51 54 1 0 0
SMALL
USER_CHARGES


@<TRIPOS>ATOM
      1 C1         -6.4247    1.3571   52.4263 C.3     1  ZINC000464752079   -0.1200
      2 C2         -7.6696    2.1827   52.6260 C.ar    1  ZINC000464752079   -0.0800
      3 C3         -8.5165    2.4246   51.5610 C.ar    1  ZINC000464752079   -0.1200
      4 C4         -9.6586    3.1821   51.7442 C.ar    1  ZINC000464752079   -0.1200
      5 C5         -9.9535    3.6970   52.9925 C.ar    1  ZINC000464752079   -0.1300
      6 C6         -9.1067    3.4542   54.0580 C.ar    1  ZINC000464752079   -0.0900
      7 C7         -7.9673    2.6934   53.8759 C.ar    1  ZINC000464752079   -0.0800
      8 C8         -7.0443    2.4287   55.0373 C.3     1  ZINC000464752079    0.2000
      9 H9         -6.4735    1.5178   54.8570 H       1  ZINC000464752079    0.0900
     10 C10        -6.0833    3.6214   55.2265 C.3     1  ZINC000464752079   -0.1200
     11 C11        -5.9782    3.7416   56.7698 C.3     1  ZINC000464752079   -0.1300
     12 C12        -7.4137    3.3607   57.2099 C.3     1  ZINC000464752079    0.1000
     13 N13        -7.8252    2.2926   56.2756 N.am    1  ZINC000464752079   -0.6300
     14 C14        -8.7616    1.3542   56.5185 C.2     1  ZINC000464752079    0.7200
     15 O15        -9.0193    0.5194   55.6729 O.2     1  ZINC000464752079   -0.5700
     16 N16        -9.4124    1.3413   57.6986 N.am    1  ZINC000464752079   -0.7400
     17 C17       -10.4290    0.3202   57.9633 C.3     1  ZINC000464752079    0.1900
     18 C18       -10.2762   -0.1869   59.3742 C.ar    1  ZINC000464752079   -0.1200
     19 C19       -10.2325    0.7066   60.4278 C.ar    1  ZINC000464752079   -0.0500
     20 C20       -10.0917    0.2437   61.7258 C.ar    1  ZINC000464752079    0.0100
     21 C21        -9.9944   -1.1240   61.9688 C.ar    1  ZINC000464752079    0.0800
     22 C22       -10.0396   -2.0177   60.9114 C.ar    1  ZINC000464752079   -0.1800
     23 C23       -10.1853   -1.5499   59.6143 C.ar    1  ZINC000464752079    0.1400
     24 O24       -10.2300   -2.4273   58.5764 O.3     1  ZINC000464752079   -0.3100
     25 C25       -11.0099   -3.6104   58.7602 C.3     1  ZINC000464752079    0.4100
     26 F26       -11.8915   -3.7596   57.6841 F       1  ZINC000464752079   -0.2000
     27 F27       -10.1630   -4.7218   58.8267 F       1  ZINC000464752079   -0.2000
     28 O28        -9.8642   -1.3202   63.3134 O.3     1  ZINC000464752079   -0.3000
     29 C29        -9.4722   -0.0439   63.8524 C.3     1  ZINC000464752079    0.2100
     30 O30       -10.0223    0.9048   62.9193 O.3     1  ZINC000464752079   -0.3000
     31 H31        -6.6542    0.3058   52.6003 H       1  ZINC000464752079    0.0700
     32 H32        -6.0630    1.4860   51.4062 H       1  ZINC000464752079    0.0700
     33 H33        -5.6566    1.6823   53.1280 H       1  ZINC000464752079    0.0700
     34 H34        -8.2861    2.0223   50.5856 H       1  ZINC000464752079    0.1200
     35 H35       -10.3200    3.3717   50.9117 H       1  ZINC000464752079    0.1200
     36 H36       -10.8453    4.2892   53.1355 H       1  ZINC000464752079    0.1200
     37 H37        -9.3370    3.8568   55.0334 H       1  ZINC000464752079    0.1100
     38 H38        -5.1086    3.4045   54.7892 H       1  ZINC000464752079    0.0900
     39 H39        -6.5064    4.5294   54.7969 H       1  ZINC000464752079    0.0800
     40 H40        -5.2477    3.0372   57.1676 H       1  ZINC000464752079    0.0800
     41 H41        -5.7365    4.7622   57.0666 H       1  ZINC000464752079    0.0900
     42 H42        -7.4099    2.9865   58.2337 H       1  ZINC000464752079    0.0700
     43 H43        -8.0782    4.2202   57.1217 H       1  ZINC000464752079    0.0700
     44 H44        -9.2075    2.0080   58.3728 H       1  ZINC000464752079    0.4000
     45 H45       -11.4211    0.7544   57.8387 H       1  ZINC000464752079    0.0800
     46 H46       -10.3040   -0.5068   57.2644 H       1  ZINC000464752079    0.0800
     47 H47       -10.3080    1.7673   60.2388 H       1  ZINC000464752079    0.1500
     48 H48        -9.9644   -3.0789   61.0975 H       1  ZINC000464752079    0.1500
     49 H49       -11.5781   -3.5306   59.6870 H       1  ZINC000464752079    0.1900
     50 H50        -9.9012    0.1013   64.8439 H       1  ZINC000464752079    0.1400
     51 H51        -8.3860    0.0396   63.8879 H       1  ZINC000464752079    0.0900
@<TRIPOS>BOND
     1     1     2    1
     2     1    31    1
     3     1    32    1
     4     1    33    1
     5     2     7   ar
     6     2     3   ar
     7     3     4   ar
     8     3    34    1
     9     4     5   ar
    10     4    35    1
    11     5     6   ar
    12     5    36    1
    13     6     7   ar
    14     6    37    1
    15     7     8    1
    16     8     9    1
    17     8    13    1
    18     8    10    1
    19    10    11    1
    20    10    38    1
    21    10    39    1
    22    11    12    1
    23    11    40    1
    24    11    41    1
    25    12    13    1
    26    12    42    1
    27    12    43    1
    28    13    14   am
    29    14    15    2
    30    14    16   am
    31    16    17    1
    32    16    44    1
    33    17    18    1
    34    17    45    1
    35    17    46    1
    36    18    23   ar
    37    18    19   ar
    38    19    20   ar
    39    19    47    1
    40    20    30    1
    41    20    21   ar
    42    21    22   ar
    43    21    28    1
    44    22    23   ar
    45    22    48    1
    46    23    24    1
    47    24    25    1
    48    25    26    1
    49    25    27    1
    50    25    49    1
    51    28    29    1
    52    29    30    1
    53    29    50    1
    54    29    51    1
@<TRIPOS>SUBSTRUCTURE
     1 ZINC000464752079        1 TEMP              0 ****  ****    0 ROOT


##########                                Name:    ZINC001060620810
##########                DOCK_Rotatable_Bonds:                   5
##########                         Heavy_Atoms:                  24
##########                    Molecular_Weight:             332.421
##########                DOCK_Rotatable_Bonds:                   5
##########                       Formal_Charge:           0.0299998
##########                     HBond_Acceptors:                   6
##########                        HBond_Donors:                   2
##########                         Heavy_Atoms:                  24
##########                          Grid_Score:          -29.492702
##########                     Grid_vdw_energy:          -29.540049
##########                      Grid_es_energy:            0.047346
##########           Internal_energy_repulsive:           13.388469

@<TRIPOS>MOLECULE
ZINC001060620810
 49 52 1 0 0
SMALL
USER_CHARGES


@<TRIPOS>ATOM
      1 O1         -8.9563   -1.3984   63.2249 O.2     1  ZINC001060620810   -0.5400
      2 C2         -9.8057   -0.5469   63.0682 C.2     1  ZINC001060620810    0.5500
      3 N3        -10.3016   -0.3080   61.8380 N.am    1  ZINC001060620810   -0.7200
      4 C4         -9.8160   -1.0782   60.6902 C.3     1  ZINC001060620810    0.1400
      5 C5        -10.4666   -2.4629   60.6933 C.3     1  ZINC001060620810   -0.1300
      6 C6         -9.9597   -3.2673   59.4946 C.3     1  ZINC001060620810   -0.1300
      7 C7        -10.3217   -2.5365   58.2000 C.3     1  ZINC001060620810    0.1600
      8 N8        -11.7768   -2.3925   58.1111 N.pl3   1  ZINC001060620810   -0.6900
      9 C9        -12.5611   -3.4819   57.7683 C.ar    1  ZINC001060620810    0.5600
     10 N10       -13.8275   -3.2861   57.4331 N.ar    1  ZINC001060620810   -0.5400
     11 C11       -14.6032   -4.3033   57.0957 C.ar    1  ZINC001060620810    0.1700
     12 C12       -14.0773   -5.5876   57.1064 C.ar    1  ZINC001060620810   -0.0700
     13 F13       -14.8422   -6.6499   56.7720 F       1  ZINC001060620810   -0.1300
     14 C14       -12.7481   -5.7561   57.4678 C.ar    1  ZINC001060620810    0.1800
     15 N15       -12.0276   -4.6940   57.7890 N.ar    1  ZINC001060620810   -0.5500
     16 C16        -9.6710   -1.1517   58.1970 C.3     1  ZINC001060620810   -0.1200
     17 C17       -10.1781   -0.3474   59.3957 C.3     1  ZINC001060620810   -0.1300
     18 C18       -10.3064    0.2441   64.2491 C.3     1  ZINC001060620810   -0.1500
     19 C19       -11.8187    0.2949   64.4233 C.3     1  ZINC001060620810   -0.1500
     20 C20       -11.0756    1.5141   63.9208 C.3     1  ZINC001060620810   -0.1100
     21 H21       -11.2151    1.7549   62.8670 H       1  ZINC001060620810    0.1100
     22 C22       -11.0046    2.7265   64.8439 C.3     1  ZINC001060620810   -0.0900
     23 C23        -9.7759    2.6382   65.7493 C.3     1  ZINC001060620810   -0.1200
     24 C24        -9.7966    1.2856   66.4704 C.3     1  ZINC001060620810   -0.1200
     25 C25        -9.4051    0.1954   65.4729 C.3     1  ZINC001060620810   -0.0800
     26 H26       -10.9799    0.3739   61.7125 H       1  ZINC001060620810    0.4000
     27 H27        -8.7333   -1.1853   60.7564 H       1  ZINC001060620810    0.0900
     28 H28       -10.2088   -2.9836   61.6154 H       1  ZINC001060620810    0.0700
     29 H29       -11.5494   -2.3558   60.6271 H       1  ZINC001060620810    0.0600
     30 H30       -10.4232   -4.2538   59.4967 H       1  ZINC001060620810    0.0700
     31 H31        -8.8769   -3.3744   59.5607 H       1  ZINC001060620810    0.0800
     32 H32        -9.9604   -3.1095   57.3461 H       1  ZINC001060620810    0.1000
     33 H33       -12.1912   -1.5344   58.2923 H       1  ZINC001060620810    0.4100
     34 H34       -15.6339   -4.1368   56.8198 H       1  ZINC001060620810    0.1800
     35 H35       -12.3074   -6.7419   57.4869 H       1  ZINC001060620810    0.1800
     36 H36        -9.9289   -0.6312   57.2748 H       1  ZINC001060620810    0.0800
     37 H37        -8.5883   -1.2589   58.2632 H       1  ZINC001060620810    0.0900
     38 H38       -11.2607   -0.2403   59.3296 H       1  ZINC001060620810    0.0700
     39 H39        -9.7145    0.6391   59.3936 H       1  ZINC001060620810    0.0800
     40 H40       -12.4277   -0.2484   63.7008 H       1  ZINC001060620810    0.1000
     41 H41       -12.2081    0.3233   65.4410 H       1  ZINC001060620810    0.1100
     42 H42       -11.9051    2.7433   65.4578 H       1  ZINC001060620810    0.0700
     43 H43       -10.9530    3.6410   64.2530 H       1  ZINC001060620810    0.0700
     44 H44        -9.8027    3.4443   66.4824 H       1  ZINC001060620810    0.0700
     45 H45        -8.8709    2.7179   65.1469 H       1  ZINC001060620810    0.0700
     46 H46       -10.7987    1.0897   66.8521 H       1  ZINC001060620810    0.0700
     47 H47        -9.0843    1.2998   67.2954 H       1  ZINC001060620810    0.0700
     48 H48        -9.4994   -0.7799   65.9506 H       1  ZINC001060620810    0.0700
     49 H49        -8.3706    0.3459   65.1640 H       1  ZINC001060620810    0.0700
@<TRIPOS>BOND
     1     1     2    2
     2     2     3   am
     3     2    18    1
     4     3     4    1
     5     3    26    1
     6     4    17    1
     7     4     5    1
     8     4    27    1
     9     5     6    1
    10     5    28    1
    11     5    29    1
    12     6     7    1
    13     6    30    1
    14     6    31    1
    15     7     8    1
    16     7    16    1
    17     7    32    1
    18     8     9    1
    19     8    33    1
    20     9    15   ar
    21     9    10   ar
    22    10    11   ar
    23    11    12   ar
    24    11    34    1
    25    12    13    1
    26    12    14   ar
    27    14    15   ar
    28    14    35    1
    29    16    17    1
    30    16    36    1
    31    16    37    1
    32    17    38    1
    33    17    39    1
    34    18    20    1
    35    18    25    1
    36    18    19    1
    37    19    20    1
    38    19    40    1
    39    19    41    1
    40    20    21    1
    41    20    22    1
    42    22    23    1
    43    22    42    1
    44    22    43    1
    45    23    24    1
    46    23    44    1
    47    23    45    1
    48    24    25    1
    49    24    46    1
    50    24    47    1
    51    25    48    1
    52    25    49    1
@<TRIPOS>SUBSTRUCTURE
     1 ZINC001060620810        1 TEMP              0 ****  ****    0 ROOT


##########                                Name:    ZINC000945148121
##########                DOCK_Rotatable_Bonds:                   6
##########                         Heavy_Atoms:                  24
##########                    Molecular_Weight:             332.446
##########                DOCK_Rotatable_Bonds:                   6
##########                       Formal_Charge:           0.0100009
##########                     HBond_Acceptors:                   6
##########                        HBond_Donors:                   2
##########                         Heavy_Atoms:                  24
##########                          Grid_Score:          -29.466171
##########                     Grid_vdw_energy:          -26.920551
##########                      Grid_es_energy:           -2.545621
##########           Internal_energy_repulsive:           18.094769

@<TRIPOS>MOLECULE
ZINC000945148121
 52 54 1 0 0
SMALL
USER_CHARGES


@<TRIPOS>ATOM
      1 O1        -12.0593   -2.1271   59.1026 O.2     1  ZINC000945148121   -0.5100
      2 C2        -11.1791   -1.7348   59.8390 C.2     1  ZINC000945148121    0.5200
      3 C3        -10.8869   -2.4693   61.1220 C.3     1  ZINC000945148121   -0.0500
      4 C4        -10.2693   -1.5191   62.1154 C.2     1  ZINC000945148121    0.0100
      5 C5         -8.9565   -1.2453   62.2379 C.2     1  ZINC000945148121   -0.0500
      6 N6         -8.8346   -0.3367   63.2543 N.pl3   1  ZINC000945148121   -0.5700
      7 C7        -10.0781   -0.0865   63.7178 C.2     1  ZINC000945148121    0.1800
      8 N8        -10.9316   -0.7935   63.0286 N.2     1  ZINC000945148121   -0.4700
      9 N9        -10.4585   -0.6452   59.5072 N.am    1  ZINC000945148121   -0.7300
     10 C10       -10.7426    0.0689   58.2600 C.3     1  ZINC000945148121    0.1500
     11 C11       -10.3497    1.5400   58.4139 C.3     1  ZINC000945148121   -0.1400
     12 C12       -10.6801    2.2906   57.1200 C.3     1  ZINC000945148121    0.1100
     13 N13       -10.0268    1.6060   55.9961 N.am    1  ZINC000945148121   -0.6100
     14 C14        -9.2242    2.2840   55.1519 C.2     1  ZINC000945148121    0.5200
     15 O15        -9.0344    3.4704   55.3171 O.2     1  ZINC000945148121   -0.5400
     16 C16        -8.5628    1.5679   54.0027 C.3     1  ZINC000945148121   -0.1000
     17 C17        -9.5755    1.3036   52.9216 C.3     1  ZINC000945148121   -0.1200
     18 C18        -9.3123   -0.0199   52.1782 C.3     1  ZINC000945148121   -0.1200
     19 C19        -7.8186   -0.2511   51.8802 C.3     1  ZINC000945148121   -0.1200
     20 C20        -7.1234    1.0006   51.4175 C.3     1  ZINC000945148121   -0.1200
     21 C21        -6.4793    1.6841   52.6410 C.3     1  ZINC000945148121   -0.1200
     22 C22        -7.4414    2.4512   53.4183 C.3     1  ZINC000945148121   -0.1000
     23 C23       -10.2647    0.1680   55.8102 C.3     1  ZINC000945148121    0.1100
     24 C24        -9.9389   -0.5587   57.1188 C.3     1  ZINC000945148121   -0.1400
     25 H25       -11.8147   -2.8699   61.5308 H       1  ZINC000945148121    0.1000
     26 H26       -10.1946   -3.2873   60.9229 H       1  ZINC000945148121    0.1000
     27 H27        -8.1540   -1.6629   61.6479 H       1  ZINC000945148121    0.1800
     28 H28        -8.0092    0.0546   63.5806 H       1  ZINC000945148121    0.4200
     29 H29       -10.3257    0.5897   64.5227 H       1  ZINC000945148121    0.2100
     30 H30        -9.7519   -0.3338   60.0943 H       1  ZINC000945148121    0.4000
     31 H31       -11.8070   -0.0009   58.0359 H       1  ZINC000945148121    0.0900
     32 H32       -10.9054    1.9802   59.2419 H       1  ZINC000945148121    0.0800
     33 H33        -9.2806    1.6121   58.6134 H       1  ZINC000945148121    0.0700
     34 H34       -11.7593    2.2969   56.9666 H       1  ZINC000945148121    0.0700
     35 H35       -10.3127    3.3146   57.1875 H       1  ZINC000945148121    0.1000
     36 H36        -8.1417    0.6252   54.3524 H       1  ZINC000945148121    0.1000
     37 H37       -10.5682    1.2648   53.3702 H       1  ZINC000945148121    0.0700
     38 H38        -9.5469    2.1231   52.2035 H       1  ZINC000945148121    0.0700
     39 H39        -9.6809   -0.8449   52.7878 H       1  ZINC000945148121    0.0600
     40 H40        -9.8610   -0.0092   51.2364 H       1  ZINC000945148121    0.0700
     41 H41        -7.3301   -0.6117   52.7855 H       1  ZINC000945148121    0.0600
     42 H42        -7.7271   -1.0122   51.1054 H       1  ZINC000945148121    0.0600
     43 H43        -6.3508    0.7438   50.6927 H       1  ZINC000945148121    0.0600
     44 H44        -7.8482    1.6746   50.9609 H       1  ZINC000945148121    0.0700
     45 H45        -6.0379    0.9199   53.2806 H       1  ZINC000945148121    0.0600
     46 H46        -5.6902    2.3528   52.2971 H       1  ZINC000945148121    0.0600
     47 H47        -7.8884    3.2105   52.7767 H       1  ZINC000945148121    0.0700
     48 H48        -6.9192    2.9463   54.2371 H       1  ZINC000945148121    0.0700
     49 H49       -11.3100    0.0013   55.5499 H       1  ZINC000945148121    0.0700
     50 H50        -9.6230   -0.2085   55.0136 H       1  ZINC000945148121    0.1000
     51 H51        -8.8737   -0.4669   57.3305 H       1  ZINC000945148121    0.0700
     52 H52       -10.2022   -1.6124   57.0250 H       1  ZINC000945148121    0.0800
@<TRIPOS>BOND
     1     1     2    2
     2     2     3    1
     3     2     9   am
     4     3     4    1
     5     3    25    1
     6     3    26    1
     7     4     8    1
     8     4     5    2
     9     5     6    1
    10     5    27    1
    11     6     7    1
    12     6    28    1
    13     7     8    2
    14     7    29    1
    15     9    10    1
    16     9    30    1
    17    10    24    1
    18    10    11    1
    19    10    31    1
    20    11    12    1
    21    11    32    1
    22    11    33    1
    23    12    13    1
    24    12    34    1
    25    12    35    1
    26    13    14   am
    27    13    23    1
    28    14    15    2
    29    14    16    1
    30    16    22    1
    31    16    17    1
    32    16    36    1
    33    17    18    1
    34    17    37    1
    35    17    38    1
    36    18    19    1
    37    18    39    1
    38    18    40    1
    39    19    20    1
    40    19    41    1
    41    19    42    1
    42    20    21    1
    43    20    43    1
    44    20    44    1
    45    21    22    1
    46    21    45    1
    47    21    46    1
    48    22    47    1
    49    22    48    1
    50    23    24    1
    51    23    49    1
    52    23    50    1
    53    24    51    1
    54    24    52    1
@<TRIPOS>SUBSTRUCTURE
     1 ZINC000945148121        1 TEMP              0 ****  ****    0 ROOT


##########                                Name:    ZINC000534799364
##########                DOCK_Rotatable_Bonds:                   4
##########                         Heavy_Atoms:                  29
##########                    Molecular_Weight:             391.491
##########                DOCK_Rotatable_Bonds:                   4
##########                       Formal_Charge:           0.0199998
##########                     HBond_Acceptors:                   6
##########                        HBond_Donors:                   0
##########                         Heavy_Atoms:                  29
##########                          Grid_Score:          -29.434122
##########                     Grid_vdw_energy:          -28.225195
##########                      Grid_es_energy:           -1.208927
##########           Internal_energy_repulsive:           14.248287

@<TRIPOS>MOLECULE
ZINC000534799364
 55 59 1 0 0
SMALL
USER_CHARGES


@<TRIPOS>ATOM
      1 C1         -9.4220   -0.4036   65.9771 C.3     1  ZINC000534799364   -0.1100
      2 C2        -10.3605    0.6813   65.5154 C.ar    1  ZINC000534799364   -0.0200
      3 C3        -10.7371    1.7046   66.3694 C.ar    1  ZINC000534799364   -0.1700
      4 C4        -11.6001    2.6832   65.9116 C.ar    1  ZINC000534799364    0.1000
      5 N5        -12.0658    2.6532   64.6785 N.ar    1  ZINC000534799364   -0.4800
      6 C6        -11.7331    1.6979   63.8334 C.ar    1  ZINC000534799364    0.0800
      7 C7        -10.8663    0.6829   64.2174 C.ar    1  ZINC000534799364    0.0300
      8 N8        -10.5157   -0.3277   63.3187 N.3     1  ZINC000534799364   -0.5000
      9 C9         -9.2587   -0.0060   62.6287 C.3     1  ZINC000534799364    0.0600
     10 C10        -8.8690   -1.1702   61.7149 C.3     1  ZINC000534799364    0.0600
     11 N11        -9.9493   -1.4142   60.7489 N.3     1  ZINC000534799364   -0.5300
     12 C12        -9.5805   -2.4768   59.8040 C.3     1  ZINC000534799364    0.1400
     13 C13       -10.5121   -2.4417   58.6199 C.2     1  ZINC000534799364    0.1100
     14 N14       -11.4351   -3.3266   58.3447 N.2     1  ZINC000534799364   -0.2800
     15 N15       -12.0804   -2.9340   57.1660 N.pl3   1  ZINC000534799364   -0.3100
     16 C16       -13.1312   -3.6149   56.5343 C.ar    1  ZINC000534799364    0.1500
     17 C17       -13.2658   -4.9874   56.6943 C.ar    1  ZINC000534799364   -0.1000
     18 C18       -14.3012   -5.6561   56.0715 C.ar    1  ZINC000534799364   -0.1300
     19 C19       -15.2050   -4.9585   55.2877 C.ar    1  ZINC000534799364    0.1000
     20 F20       -16.2174   -5.6143   54.6795 F       1  ZINC000534799364   -0.1300
     21 C21       -15.0724   -3.5894   55.1269 C.ar    1  ZINC000534799364   -0.1300
     22 C22       -14.0416   -2.9163   55.7528 C.ar    1  ZINC000534799364   -0.0800
     23 C23       -11.5102   -1.7799   56.7435 C.2     1  ZINC000534799364    0.0500
     24 C24       -10.5422   -1.4516   57.6277 C.2     1  ZINC000534799364   -0.2200
     25 C25        -9.8650   -0.1644   57.2085 C.3     1  ZINC000534799364   -0.0400
     26 C26       -10.2513    0.0264   55.7256 C.3     1  ZINC000534799364   -0.1200
     27 C27       -11.5866   -0.7467   55.6406 C.3     1  ZINC000534799364   -0.0500
     28 C28       -11.2062   -1.7359   61.4389 C.3     1  ZINC000534799364    0.0600
     29 C29       -11.5959   -0.5717   62.3527 C.3     1  ZINC000534799364    0.0600
     30 H30        -8.4014   -0.1458   65.6939 H       1  ZINC000534799364    0.0800
     31 H31        -9.4846   -0.5013   67.0609 H       1  ZINC000534799364    0.0600
     32 H32        -9.7010   -1.3483   65.5103 H       1  ZINC000534799364    0.0800
     33 H33       -10.3614    1.7375   67.3814 H       1  ZINC000534799364    0.1400
     34 H34       -11.8972    3.4831   66.5737 H       1  ZINC000534799364    0.1600
     35 H35       -12.1352    1.7068   62.8310 H       1  ZINC000534799364    0.1500
     36 H36        -9.3923    0.8961   62.0314 H       1  ZINC000534799364    0.0500
     37 H37        -8.4715    0.1580   63.3646 H       1  ZINC000534799364    0.0800
     38 H38        -7.9522   -0.9218   61.1802 H       1  ZINC000534799364    0.0900
     39 H39        -8.7088   -2.0658   62.3152 H       1  ZINC000534799364    0.0500
     40 H40        -8.5561   -2.3222   59.4650 H       1  ZINC000534799364    0.1000
     41 H41        -9.6574   -3.4452   60.2983 H       1  ZINC000534799364    0.0500
     42 H42       -12.5609   -5.5317   57.3052 H       1  ZINC000534799364    0.1400
     43 H43       -14.4059   -6.7238   56.1955 H       1  ZINC000534799364    0.1500
     44 H44       -15.7779   -3.0471   54.5149 H       1  ZINC000534799364    0.1500
     45 H45       -13.9386   -1.8486   55.6275 H       1  ZINC000534799364    0.1400
     46 H46       -10.2336    0.6694   57.8062 H       1  ZINC000534799364    0.0800
     47 H47        -8.7836   -0.2550   57.3098 H       1  ZINC000534799364    0.0700
     48 H48       -10.3984    1.0813   55.4941 H       1  ZINC000534799364    0.0800
     49 H49        -9.5016   -0.4141   55.0683 H       1  ZINC000534799364    0.0800
     50 H50       -11.6798   -1.2367   54.6715 H       1  ZINC000534799364    0.0800
     51 H51       -12.4263   -0.0719   55.8070 H       1  ZINC000534799364    0.0900
     52 H52       -11.9934   -1.8999   60.7030 H       1  ZINC000534799364    0.0900
     53 H53       -11.0726   -2.6380   62.0361 H       1  ZINC000534799364    0.0500
     54 H54       -12.5127   -0.8201   62.8874 H       1  ZINC000534799364    0.0800
     55 H55       -11.7560    0.3239   61.7524 H       1  ZINC000534799364    0.0500
@<TRIPOS>BOND
     1     1     2    1
     2     1    30    1
     3     1    31    1
     4     1    32    1
     5     2     7   ar
     6     2     3   ar
     7     3     4   ar
     8     3    33    1
     9     4     5   ar
    10     4    34    1
    11     5     6   ar
    12     6     7   ar
    13     6    35    1
    14     7     8    1
    15     8    29    1
    16     8     9    1
    17     9    10    1
    18     9    36    1
    19     9    37    1
    20    10    11    1
    21    10    38    1
    22    10    39    1
    23    11    12    1
    24    11    28    1
    25    12    13    1
    26    12    40    1
    27    12    41    1
    28    13    24    1
    29    13    14    2
    30    14    15    1
    31    15    16    1
    32    15    23    1
    33    16    22   ar
    34    16    17   ar
    35    17    18   ar
    36    17    42    1
    37    18    19   ar
    38    18    43    1
    39    19    20    1
    40    19    21   ar
    41    21    22   ar
    42    21    44    1
    43    22    45    1
    44    23    27    1
    45    23    24    2
    46    24    25    1
    47    25    26    1
    48    25    46    1
    49    25    47    1
    50    26    27    1
    51    26    48    1
    52    26    49    1
    53    27    50    1
    54    27    51    1
    55    28    29    1
    56    28    52    1
    57    28    53    1
    58    29    54    1
    59    29    55    1
@<TRIPOS>SUBSTRUCTURE
     1 ZINC000534799364        1 TEMP              0 ****  ****    0 ROOT


##########                                Name:    ZINC000863216249
##########                DOCK_Rotatable_Bonds:                   5
##########                         Heavy_Atoms:                  23
##########                    Molecular_Weight:             396.351
##########                DOCK_Rotatable_Bonds:                   5
##########                       Formal_Charge:         -0.00999944
##########                     HBond_Acceptors:                   5
##########                        HBond_Donors:                   1
##########                         Heavy_Atoms:                  23
##########                          Grid_Score:          -29.429871
##########                     Grid_vdw_energy:          -27.177616
##########                      Grid_es_energy:           -2.252254
##########           Internal_energy_repulsive:           25.786793

@<TRIPOS>MOLECULE
ZINC000863216249
 45 48 1 0 0
SMALL
USER_CHARGES


@<TRIPOS>ATOM
      1 S1        -16.1096   -1.4073   62.2444 S.2     1  ZINC000863216249   -0.5900
      2 C2        -14.6365   -1.8156   61.4737 C.2     1  ZINC000863216249    0.5600
      3 N3        -14.6324   -2.6890   60.4472 N.am    1  ZINC000863216249   -0.6800
      4 C4        -15.8878   -3.2937   59.9949 C.3     1  ZINC000863216249    0.1200
      5 C5        -16.0428   -3.0801   58.4879 C.3     1  ZINC000863216249    0.0400
      6 N6        -14.8453   -3.5770   57.7972 N.3     1  ZINC000863216249   -0.5300
      7 C7        -14.6224   -2.8492   56.5394 C.3     1  ZINC000863216249    0.0000
      8 C8        -13.3353   -3.3564   55.8838 C.3     1  ZINC000863216249    0.0600
      9 O9        -13.4335   -4.7689   55.6819 O.3     1  ZINC000863216249   -0.3800
     10 C10       -13.6501   -5.5088   56.8865 C.3     1  ZINC000863216249    0.0600
     11 C11       -14.9404   -5.0234   57.5523 C.3     1  ZINC000863216249    0.0200
     12 N12       -13.4815   -1.2593   61.8898 N.am    1  ZINC000863216249   -0.5100
     13 C13       -13.3595   -0.2990   62.9923 C.3     1  ZINC000863216249    0.1200
     14 C14       -11.8644    0.0257   63.0685 C.3     1  ZINC000863216249   -0.1100
     15 C15       -11.3680    1.4235   63.4174 C.3     1  ZINC000863216249   -0.1500
     16 C16       -11.1671    0.2677   64.4016 C.3     1  ZINC000863216249   -0.1500
     17 C17       -11.2255   -0.7929   61.9766 C.ar    1  ZINC000863216249   -0.0700
     18 C18        -9.9096   -0.9079   61.5721 C.ar    1  ZINC000863216249   -0.0800
     19 C19        -9.5746   -1.7429   60.5226 C.ar    1  ZINC000863216249   -0.1000
     20 C20       -10.5614   -2.4654   59.8760 C.ar    1  ZINC000863216249   -0.0700
     21 Br21      -10.1057   -3.6088   58.4405 Br      1  ZINC000863216249   -0.0400
     22 C22       -11.8771   -2.3542   60.2759 C.ar    1  ZINC000863216249   -0.0900
     23 C23       -12.2225   -1.5173   61.3379 C.ar    1  ZINC000863216249    0.1400
     24 H24       -13.7982   -2.9174   60.0081 H       1  ZINC000863216249    0.4000
     25 H25       -15.8753   -4.3619   60.2111 H       1  ZINC000863216249    0.0900
     26 H26       -16.7240   -2.8274   60.5159 H       1  ZINC000863216249    0.1000
     27 H27       -16.9188   -3.6227   58.1323 H       1  ZINC000863216249    0.0900
     28 H28       -16.1659   -2.0168   58.2824 H       1  ZINC000863216249    0.0400
     29 H29       -15.4640   -3.0177   55.8675 H       1  ZINC000863216249    0.0500
     30 H30       -14.5295   -1.7833   56.7472 H       1  ZINC000863216249    0.1000
     31 H31       -13.1962   -2.8603   54.9233 H       1  ZINC000863216249    0.1000
     32 H32       -12.4865   -3.1396   56.5324 H       1  ZINC000863216249    0.0600
     33 H33       -13.7386   -6.5694   56.6511 H       1  ZINC000863216249    0.1000
     34 H34       -12.8105   -5.3546   57.5643 H       1  ZINC000863216249    0.0600
     35 H35       -15.0796   -5.5446   58.4994 H       1  ZINC000863216249    0.0900
     36 H36       -15.7871   -5.2267   56.8965 H       1  ZINC000863216249    0.0500
     37 H37       -13.9326    0.6024   62.7753 H       1  ZINC000863216249    0.0900
     38 H38       -13.6977   -0.7487   63.9259 H       1  ZINC000863216249    0.0900
     39 H39       -10.4896    1.7927   62.8882 H       1  ZINC000863216249    0.1100
     40 H40       -12.1161    2.1752   63.6695 H       1  ZINC000863216249    0.1100
     41 H41       -11.7830    0.2591   65.3008 H       1  ZINC000863216249    0.1100
     42 H42       -10.1565   -0.1233   64.5196 H       1  ZINC000863216249    0.1100
     43 H43        -9.1400   -0.3432   62.0772 H       1  ZINC000863216249    0.1400
     44 H44        -8.5452   -1.8309   60.2080 H       1  ZINC000863216249    0.1400
     45 H45       -12.6432   -2.9205   59.7670 H       1  ZINC000863216249    0.1900
@<TRIPOS>BOND
     1     1     2    2
     2     2     3   am
     3     2    12   am
     4     3     4    1
     5     3    24    1
     6     4     5    1
     7     4    25    1
     8     4    26    1
     9     5     6    1
    10     5    27    1
    11     5    28    1
    12     6    11    1
    13     6     7    1
    14     7     8    1
    15     7    29    1
    16     7    30    1
    17     8     9    1
    18     8    31    1
    19     8    32    1
    20     9    10    1
    21    10    11    1
    22    10    33    1
    23    10    34    1
    24    11    35    1
    25    11    36    1
    26    12    23    1
    27    12    13    1
    28    13    14    1
    29    13    37    1
    30    13    38    1
    31    14    16    1
    32    14    15    1
    33    14    17    1
    34    15    16    1
    35    15    39    1
    36    15    40    1
    37    16    41    1
    38    16    42    1
    39    17    23   ar
    40    17    18   ar
    41    18    19   ar
    42    18    43    1
    43    19    20   ar
    44    19    44    1
    45    20    21    1
    46    20    22   ar
    47    22    23   ar
    48    22    45    1
@<TRIPOS>SUBSTRUCTURE
     1 ZINC000863216249        1 TEMP              0 ****  ****    0 ROOT


##########                                Name:    ZINC000175255939
##########                DOCK_Rotatable_Bonds:                   8
##########                         Heavy_Atoms:                  28
##########                    Molecular_Weight:             394.375
##########                DOCK_Rotatable_Bonds:                   8
##########                       Formal_Charge:          -0.0399999
##########                     HBond_Acceptors:                   9
##########                        HBond_Donors:                   1
##########                         Heavy_Atoms:                  28
##########                          Grid_Score:          -29.427519
##########                     Grid_vdw_energy:          -27.573202
##########                      Grid_es_energy:           -1.854316
##########           Internal_energy_repulsive:            7.096750

@<TRIPOS>MOLECULE
ZINC000175255939
 48 50 1 0 0
SMALL
USER_CHARGES


@<TRIPOS>ATOM
      1 C1        -17.3440   -4.1505   47.9130 C.3     1  ZINC000175255939    0.0300
      2 O2        -17.2312   -5.0851   49.0186 O.3     1  ZINC000175255939   -0.3600
      3 C3        -17.9031   -4.7849   50.1412 C.2     1  ZINC000175255939    0.4600
      4 O4        -18.5632   -3.7746   50.1983 O.2     1  ZINC000175255939   -0.5000
      5 C5        -17.8341   -5.7082   51.3302 C.3     1  ZINC000175255939   -0.0800
      6 H6        -18.7641   -5.6432   51.8951 H       1  ZINC000175255939    0.1100
      7 C7        -17.6294   -7.1459   50.8485 C.3     1  ZINC000175255939   -0.1200
      8 C8        -17.5593   -8.0831   52.0558 C.3     1  ZINC000175255939   -0.1100
      9 C9        -16.3887   -7.6740   52.9518 C.3     1  ZINC000175255939   -0.1200
     10 C10       -16.5934   -6.2363   53.4336 C.3     1  ZINC000175255939   -0.1000
     11 H11       -17.5233   -6.1714   53.9985 H       1  ZINC000175255939    0.1100
     12 C12       -15.4403   -5.8333   54.3162 C.2     1  ZINC000175255939    0.5100
     13 O13       -14.5148   -5.2005   53.8536 O.2     1  ZINC000175255939   -0.4800
     14 N14       -15.4375   -6.1761   55.6196 N.am    1  ZINC000175255939   -0.6300
     15 C15       -14.3749   -5.8063   56.4320 C.2     1  ZINC000175255939    0.2100
     16 C16       -14.0528   -4.5428   56.8289 C.2     1  ZINC000175255939   -0.2600
     17 C17       -12.8989   -4.7233   57.6350 C.2     1  ZINC000175255939    0.0900
     18 C18       -12.1241   -3.6659   58.3303 C.ar    1  ZINC000175255939   -0.0500
     19 C19       -10.7431   -3.5860   58.1599 C.ar    1  ZINC000175255939   -0.0600
     20 C20       -10.0257   -2.6024   58.8072 C.ar    1  ZINC000175255939   -0.1300
     21 C21       -10.6777   -1.6923   59.6286 C.ar    1  ZINC000175255939    0.1200
     22 O22        -9.9683   -0.7243   60.2651 O.3     1  ZINC000175255939   -0.3200
     23 C23       -10.0579    0.5999   59.7356 C.3     1  ZINC000175255939    0.4100
     24 F24        -9.8226    0.5676   58.3568 F       1  ZINC000175255939   -0.2000
     25 F25       -11.3361    1.1139   59.9787 F       1  ZINC000175255939   -0.2000
     26 C26       -12.0534   -1.7695   59.8002 C.ar    1  ZINC000175255939   -0.1900
     27 C27       -12.7767   -2.7471   59.1504 C.ar    1  ZINC000175255939   -0.0500
     28 N28       -12.6542   -6.0119   57.6423 N.2     1  ZINC000175255939   -0.3600
     29 O29       -13.4651   -6.6233   56.9866 O.3     1  ZINC000175255939    0.1200
     30 C30       -16.6634   -5.2990   52.2264 C.3     1  ZINC000175255939   -0.0900
     31 H31       -16.7542   -4.5116   47.0704 H       1  ZINC000175255939    0.1000
     32 H32       -18.3889   -4.0648   47.6148 H       1  ZINC000175255939    0.0600
     33 H33       -16.9735   -3.1737   48.2238 H       1  ZINC000175255939    0.0600
     34 H34       -18.4634   -7.4373   50.2101 H       1  ZINC000175255939    0.0800
     35 H35       -16.6994   -7.2108   50.2836 H       1  ZINC000175255939    0.0700
     36 H36       -18.4893   -8.0183   52.6206 H       1  ZINC000175255939    0.0700
     37 H37       -17.4135   -9.1074   51.7125 H       1  ZINC000175255939    0.0800
     38 H38       -16.3387   -8.3417   53.8119 H       1  ZINC000175255939    0.0700
     39 H39       -15.4587   -7.7390   52.3870 H       1  ZINC000175255939    0.0800
     40 H40       -16.1783   -6.6810   55.9899 H       1  ZINC000175255939    0.4300
     41 H41       -14.5578   -3.6196   56.5863 H       1  ZINC000175255939    0.1800
     42 H42       -10.2353   -4.2941   57.5217 H       1  ZINC000175255939    0.1400
     43 H43        -8.9555   -2.5401   58.6756 H       1  ZINC000175255939    0.1400
     44 H44        -9.3135    1.2347   60.2164 H       1  ZINC000175255939    0.1900
     45 H45       -12.5579   -1.0603   60.4396 H       1  ZINC000175255939    0.1400
     46 H46       -13.8467   -2.8065   59.2840 H       1  ZINC000175255939    0.1400
     47 H47       -15.7335   -5.3639   51.6615 H       1  ZINC000175255939    0.0900
     48 H48       -16.8093   -4.2748   52.5696 H       1  ZINC000175255939    0.0800
@<TRIPOS>BOND
     1     1     2    1
     2     1    31    1
     3     1    32    1
     4     1    33    1
     5     2     3    1
     6     3     4    2
     7     3     5    1
     8     5     6    1
     9     5    30    1
    10     5     7    1
    11     7     8    1
    12     7    34    1
    13     7    35    1
    14     8     9    1
    15     8    36    1
    16     8    37    1
    17     9    10    1
    18     9    38    1
    19     9    39    1
    20    10    11    1
    21    10    12    1
    22    10    30    1
    23    12    13    2
    24    12    14   am
    25    14    15    1
    26    14    40    1
    27    15    29    1
    28    15    16    2
    29    16    17    1
    30    16    41    1
    31    17    18    1
    32    17    28    2
    33    18    27   ar
    34    18    19   ar
    35    19    20   ar
    36    19    42    1
    37    20    21   ar
    38    20    43    1
    39    21    22    1
    40    21    26   ar
    41    22    23    1
    42    23    24    1
    43    23    25    1
    44    23    44    1
    45    26    27   ar
    46    26    45    1
    47    27    46    1
    48    28    29    1
    49    30    47    1
    50    30    48    1
@<TRIPOS>SUBSTRUCTURE
     1 ZINC000175255939        1 TEMP              0 ****  ****    0 ROOT


##########                                Name:    ZINC000110375116
##########                DOCK_Rotatable_Bonds:                  10
##########                         Heavy_Atoms:                  27
##########                    Molecular_Weight:             396.511
##########                DOCK_Rotatable_Bonds:                  10
##########                       Formal_Charge:        -2.23517e-07
##########                     HBond_Acceptors:                   9
##########                        HBond_Donors:                   0
##########                         Heavy_Atoms:                  27
##########                          Grid_Score:          -29.419151
##########                     Grid_vdw_energy:          -28.594358
##########                      Grid_es_energy:           -0.824794
##########           Internal_energy_repulsive:           28.296970

@<TRIPOS>MOLECULE
ZINC000110375116
 55 56 1 0 0
SMALL
USER_CHARGES


@<TRIPOS>ATOM
      1 C1         -6.0922    0.9414   52.3238 C.3     1  ZINC000110375116   -0.1700
      2 C2         -7.0844    0.6075   51.2079 C.3     1  ZINC000110375116    0.1000
      3 N3         -8.4294    1.0281   51.6083 N.am    1  ZINC000110375116   -0.6200
      4 C4         -8.9497    2.3273   51.1756 C.3     1  ZINC000110375116    0.1100
      5 C5         -8.5246    3.4054   52.1746 C.3     1  ZINC000110375116   -0.1700
      6 C6         -9.1880    0.2197   52.3748 C.2     1  ZINC000110375116    0.5100
      7 O7         -8.7566   -0.8553   52.7342 O.2     1  ZINC000110375116   -0.5300
      8 C8        -10.5722    0.6517   52.7851 C.3     1  ZINC000110375116   -0.1400
      9 C9        -11.1965   -0.4205   53.6805 C.3     1  ZINC000110375116   -0.0900
     10 C10       -10.7530   -0.1977   55.1278 C.3     1  ZINC000110375116   -0.1400
     11 C11       -10.9907   -1.4543   55.9250 C.2     1  ZINC000110375116    0.5200
     12 O12       -11.5529   -2.3996   55.4138 O.2     1  ZINC000110375116   -0.5300
     13 N13       -10.5785   -1.5277   57.2062 N.am    1  ZINC000110375116   -0.6200
     14 C14        -9.8998   -0.3886   57.8400 C.3     1  ZINC000110375116    0.0900
     15 C15       -10.6600   -0.0148   59.1186 C.3     1  ZINC000110375116    0.1000
     16 N16       -10.8815   -1.2352   59.9068 N.am    1  ZINC000110375116   -1.0000
     17 S17       -10.3760   -1.3250   61.4812 S.o2    1  ZINC000110375116    2.7000
     18 O18       -10.8708   -2.5552   61.9920 O.2     1  ZINC000110375116   -0.9400
     19 O19        -8.9970   -0.9823   61.4801 O.2     1  ZINC000110375116   -0.9500
     20 C20       -11.2051   -0.0484   62.3688 C.ar    1  ZINC000110375116   -0.7400
     21 C21       -10.6363    1.2107   62.4826 C.ar    1  ZINC000110375116    0.0200
     22 C22       -11.3249    2.1845   63.1899 C.ar    1  ZINC000110375116   -0.1900
     23 C23       -12.5466    1.8699   63.7539 C.ar    1  ZINC000110375116    0.1500
     24 N24       -13.0576    0.6609   63.6254 N.ar    1  ZINC000110375116   -0.4900
     25 C25       -12.4335   -0.2881   62.9555 C.ar    1  ZINC000110375116    0.2000
     26 C26       -11.5602   -2.3743   59.2730 C.3     1  ZINC000110375116    0.1000
     27 C27       -10.8051   -2.7461   57.9962 C.3     1  ZINC000110375116    0.1000
     28 H28        -5.0915    0.6284   52.0259 H       1  ZINC000110375116    0.0700
     29 H29        -6.0979    2.0160   52.5054 H       1  ZINC000110375116    0.0600
     30 H30        -6.3806    0.4174   53.2350 H       1  ZINC000110375116    0.0600
     31 H31        -6.7960    1.1315   50.2966 H       1  ZINC000110375116    0.0800
     32 H32        -7.0787   -0.4673   51.0263 H       1  ZINC000110375116    0.0800
     33 H33        -8.5517    2.5682   50.1899 H       1  ZINC000110375116    0.0800
     34 H34       -10.0379    2.2852   51.1276 H       1  ZINC000110375116    0.0800
     35 H35        -8.9117    4.3721   51.8527 H       1  ZINC000110375116    0.0700
     36 H36        -8.9227    3.1645   53.1603 H       1  ZINC000110375116    0.0500
     37 H37        -7.4365    3.4475   52.2225 H       1  ZINC000110375116    0.0600
     38 H38       -10.5120    1.5922   53.3325 H       1  ZINC000110375116    0.0900
     39 H39       -11.1889    0.7872   51.8966 H       1  ZINC000110375116    0.0900
     40 H40       -12.2830   -0.3571   53.6196 H       1  ZINC000110375116    0.0800
     41 H41       -10.8708   -1.4061   53.3483 H       1  ZINC000110375116    0.0800
     42 H42        -9.6919    0.0504   55.1486 H       1  ZINC000110375116    0.1000
     43 H43       -11.3264    0.6216   55.5615 H       1  ZINC000110375116    0.1000
     44 H44        -8.8761   -0.6661   58.0909 H       1  ZINC000110375116    0.0800
     45 H45        -9.8942    0.4604   57.1563 H       1  ZINC000110375116    0.1000
     46 H46       -10.0711    0.6944   59.7000 H       1  ZINC000110375116    0.1100
     47 H47       -11.6196    0.4308   58.8566 H       1  ZINC000110375116    0.0800
     48 H48        -9.6795    1.4279   62.0313 H       1  ZINC000110375116    0.1500
     49 H49       -10.9116    3.1763   63.2990 H       1  ZINC000110375116    0.1500
     50 H50       -13.0890    2.6226   64.3067 H       1  ZINC000110375116    0.1700
     51 H51       -12.8833   -1.2663   62.8716 H       1  ZINC000110375116    0.1700
     52 H52       -11.5658   -3.2233   59.9567 H       1  ZINC000110375116    0.1100
     53 H53       -12.5839   -2.0967   59.0221 H       1  ZINC000110375116    0.0800
     54 H54       -11.3950   -3.4554   57.4156 H       1  ZINC000110375116    0.1100
     55 H55        -9.8445   -3.1913   58.2556 H       1  ZINC000110375116    0.0800
@<TRIPOS>BOND
     1     1     2    1
     2     1    28    1
     3     1    29    1
     4     1    30    1
     5     2     3    1
     6     2    31    1
     7     2    32    1
     8     3     4    1
     9     3     6   am
    10     4     5    1
    11     4    33    1
    12     4    34    1
    13     5    35    1
    14     5    36    1
    15     5    37    1
    16     6     7    2
    17     6     8    1
    18     8     9    1
    19     8    38    1
    20     8    39    1
    21     9    10    1
    22     9    40    1
    23     9    41    1
    24    10    11    1
    25    10    42    1
    26    10    43    1
    27    11    12    2
    28    11    13   am
    29    13    27    1
    30    13    14    1
    31    14    15    1
    32    14    44    1
    33    14    45    1
    34    15    16    1
    35    15    46    1
    36    15    47    1
    37    16    17   am
    38    16    26    1
    39    17    18    2
    40    17    19    2
    41    17    20    1
    42    20    25   ar
    43    20    21   ar
    44    21    22   ar
    45    21    48    1
    46    22    23   ar
    47    22    49    1
    48    23    24   ar
    49    23    50    1
    50    24    25   ar
    51    25    51    1
    52    26    27    1
    53    26    52    1
    54    26    53    1
    55    27    54    1
    56    27    55    1
@<TRIPOS>SUBSTRUCTURE
     1 ZINC000110375116        1 TEMP              0 ****  ****    0 ROOT


##########                                Name:    ZINC000821442454
##########                DOCK_Rotatable_Bonds:                   6
##########                         Heavy_Atoms:                  26
##########                    Molecular_Weight:             398.873
##########                DOCK_Rotatable_Bonds:                   6
##########                       Formal_Charge:          -0.0399996
##########                     HBond_Acceptors:                  11
##########                        HBond_Donors:                   2
##########                         Heavy_Atoms:                  26
##########                          Grid_Score:          -29.418423
##########                     Grid_vdw_energy:          -28.991407
##########                      Grid_es_energy:           -0.427015
##########           Internal_energy_repulsive:           10.332870

@<TRIPOS>MOLECULE
ZINC000821442454
 45 47 1 0 0
SMALL
USER_CHARGES


@<TRIPOS>ATOM
      1 C1         -9.4359   -1.0673   61.1064 C.3     1  ZINC000821442454   -0.1500
      2 C2        -10.6968   -0.9475   60.2482 C.3     1  ZINC000821442454   -0.6300
      3 S3        -11.3687   -2.6015   59.9263 S.o2    1  ZINC000821442454    2.6000
      4 O4        -10.5222   -3.3196   59.0393 O.2     1  ZINC000821442454   -0.9500
      5 O5        -11.8377   -3.1921   61.1307 O.2     1  ZINC000821442454   -0.9500
      6 N6        -12.7431   -2.3249   59.0449 N.am    1  ZINC000821442454   -1.0000
      7 C7        -13.8399   -1.5210   59.6011 C.3     1  ZINC000821442454    0.1100
      8 C8        -15.1387   -2.3282   59.5089 C.3     1  ZINC000821442454   -0.1300
      9 C9        -15.3567   -2.7726   58.0608 C.3     1  ZINC000821442454   -0.1100
     10 C10       -14.1979   -3.6701   57.6208 C.3     1  ZINC000821442454   -0.1200
     11 H11       -14.1362   -4.5348   58.2817 H       1  ZINC000821442454    0.1100
     12 C12       -14.4301   -4.1340   56.2059 C.2     1  ZINC000821442454    0.5300
     13 O13       -13.4857   -4.3798   55.4856 O.2     1  ZINC000821442454   -0.5100
     14 N14       -15.6871   -4.2757   55.7409 N.am    1  ZINC000821442454   -0.6700
     15 C15       -15.9026   -4.7063   54.4277 C.ar    1  ZINC000821442454    0.1800
     16 C16       -16.2606   -3.7898   53.4471 C.ar    1  ZINC000821442454   -0.1200
     17 C17       -16.4731   -4.2119   52.1514 C.ar    1  ZINC000821442454   -0.0500
     18 C18       -16.3286   -5.5588   51.8255 C.ar    1  ZINC000821442454   -0.0300
     19 C19       -16.5566   -6.0147   50.4316 C.2     1  ZINC000821442454    0.2200
     20 N20       -16.8593   -5.2581   49.3953 N.2     1  ZINC000821442454   -0.2900
     21 N21       -16.9746   -6.0260   48.3667 N.pl3   1  ZINC000821442454   -0.2200
     22 N22       -16.7544   -7.2446   48.7183 N.2     1  ZINC000821442454   -0.0400
     23 N23       -16.4889   -7.2752   49.9801 N.2     1  ZINC000821442454   -0.2700
     24 C24       -15.9694   -6.4776   52.8102 C.ar    1  ZINC000821442454   -0.0500
     25 C25       -15.7525   -6.0506   54.1040 C.ar    1  ZINC000821442454   -0.0800
     26 Cl26      -15.3050   -7.1939   55.3313 Cl      1  ZINC000821442454   -0.0500
     27 C27       -12.8862   -2.8734   57.6894 C.3     1  ZINC000821442454    0.1400
     28 H28        -9.6845   -1.5489   62.0521 H       1  ZINC000821442454    0.0700
     29 H29        -8.6927   -1.6651   60.5786 H       1  ZINC000821442454    0.0700
     30 H30        -9.0322   -0.0735   61.2997 H       1  ZINC000821442454    0.0800
     31 H31       -11.4400   -0.3497   60.7759 H       1  ZINC000821442454    0.1300
     32 H32       -10.4482   -0.4660   59.3023 H       1  ZINC000821442454    0.1300
     33 H33       -13.6286   -1.2866   60.6445 H       1  ZINC000821442454    0.1000
     34 H34       -13.9423   -0.5979   59.0306 H       1  ZINC000821442454    0.0700
     35 H35       -15.0681   -3.2055   60.1520 H       1  ZINC000821442454    0.0700
     36 H36       -15.9760   -1.7081   59.8292 H       1  ZINC000821442454    0.0800
     37 H37       -16.2928   -3.3262   57.9878 H       1  ZINC000821442454    0.0700
     38 H38       -15.4025   -1.8958   57.4149 H       1  ZINC000821442454    0.0800
     39 H39       -16.4424   -4.0791   56.3170 H       1  ZINC000821442454    0.4200
     40 H40       -16.3730   -2.7457   53.6998 H       1  ZINC000821442454    0.1600
     41 H41       -16.7518   -3.4987   51.3898 H       1  ZINC000821442454    0.1500
     42 H42       -17.1931   -5.7319   47.4686 H       1  ZINC000821442454    0.4800
     43 H43       -15.8569   -7.5220   52.5597 H       1  ZINC000821442454    0.1500
     44 H44       -12.9129   -2.0621   56.9620 H       1  ZINC000821442454    0.0800
     45 H45       -12.0461   -3.5334   57.4731 H       1  ZINC000821442454    0.1000
@<TRIPOS>BOND
     1     1     2    1
     2     1    28    1
     3     1    29    1
     4     1    30    1
     5     2     3    1
     6     2    31    1
     7     2    32    1
     8     3     4    2
     9     3     5    2
    10     3     6   am
    11     6    27    1
    12     6     7    1
    13     7     8    1
    14     7    33    1
    15     7    34    1
    16     8     9    1
    17     8    35    1
    18     8    36    1
    19     9    10    1
    20     9    37    1
    21     9    38    1
    22    10    11    1
    23    10    12    1
    24    10    27    1
    25    12    13    2
    26    12    14   am
    27    14    15    1
    28    14    39    1
    29    15    25   ar
    30    15    16   ar
    31    16    17   ar
    32    16    40    1
    33    17    18   ar
    34    17    41    1
    35    18    19    1
    36    18    24   ar
    37    19    23    1
    38    19    20    2
    39    20    21    1
    40    21    22    1
    41    21    42    1
    42    22    23    2
    43    24    25   ar
    44    24    43    1
    45    25    26    1
    46    27    44    1
    47    27    45    1
@<TRIPOS>SUBSTRUCTURE
     1 ZINC000821442454        1 TEMP              0 ****  ****    0 ROOT


##########                                Name:    ZINC000533037883
##########                DOCK_Rotatable_Bonds:                   7
##########                         Heavy_Atoms:                  27
##########                    Molecular_Weight:             368.479
##########                DOCK_Rotatable_Bonds:                   7
##########                       Formal_Charge:          0.00999947
##########                     HBond_Acceptors:                   6
##########                        HBond_Donors:                   1
##########                         Heavy_Atoms:                  27
##########                          Grid_Score:          -29.413181
##########                     Grid_vdw_energy:          -28.690063
##########                      Grid_es_energy:           -0.723118
##########           Internal_energy_repulsive:           14.801082

@<TRIPOS>MOLECULE
ZINC000533037883
 55 58 1 0 0
SMALL
USER_CHARGES


@<TRIPOS>ATOM
      1 O1        -11.3506   -4.5144   58.9978 O.2     1  ZINC000533037883   -0.5900
      2 C2        -12.1512   -3.7034   58.5738 C.2     1  ZINC000533037883    0.7100
      3 N3        -13.1394   -4.1005   57.7477 N.am    1  ZINC000533037883   -0.7500
      4 C4        -13.2452   -5.5082   57.3559 C.3     1  ZINC000533037883    0.1400
      5 C5        -14.7207   -5.8968   57.2440 C.3     1  ZINC000533037883   -0.0500
      6 C6        -15.3772   -5.0716   56.1674 C.2     1  ZINC000533037883   -0.2300
      7 C7        -15.5750   -5.4503   54.8835 C.2     1  ZINC000533037883    0.0600
      8 N8        -16.1928   -4.4313   54.2444 N.pl3   1  ZINC000533037883   -0.3200
      9 C9        -16.5789   -4.4155   52.8969 C.ar    1  ZINC000533037883    0.1600
     10 C10       -16.3407   -5.5216   52.0921 C.ar    1  ZINC000533037883   -0.1400
     11 C11       -16.7222   -5.5031   50.7648 C.ar    1  ZINC000533037883   -0.0900
     12 C12       -17.3405   -4.3844   50.2371 C.ar    1  ZINC000533037883   -0.1300
     13 C13       -17.5791   -3.2814   51.0362 C.ar    1  ZINC000533037883   -0.0900
     14 C14       -17.2054   -3.2962   52.3657 C.ar    1  ZINC000533037883   -0.1200
     15 N15       -16.3793   -3.3943   55.1676 N.2     1  ZINC000533037883   -0.2900
     16 C16       -15.8952   -3.7808   56.3205 C.2     1  ZINC000533037883    0.0700
     17 N17       -12.0539   -2.4084   58.9343 N.am    1  ZINC000533037883   -0.6300
     18 C18       -13.0174   -1.4180   58.4350 C.3     1  ZINC000533037883    0.1100
     19 C19       -13.6220   -0.6728   59.6292 C.3     1  ZINC000533037883   -0.1400
     20 C20       -12.4954   -0.0808   60.4794 C.3     1  ZINC000533037883   -0.1100
     21 C21       -11.6095   -1.2090   61.0124 C.3     1  ZINC000533037883   -0.0900
     22 H22       -12.2134   -1.8979   61.6028 H       1  ZINC000533037883    0.0800
     23 C23       -10.5035   -0.6188   61.8895 C.3     1  ZINC000533037883   -0.1200
     24 H24        -9.9305    0.1270   61.3387 H       1  ZINC000533037883    0.0900
     25 C25       -11.0951   -0.0113   63.1906 C.3     1  ZINC000533037883   -0.1500
     26 C26        -9.8948   -0.1639   64.1586 C.3     1  ZINC000533037883    0.0500
     27 O27        -9.2788   -1.4105   63.7986 O.3     1  ZINC000533037883   -0.3900
     28 C28        -9.5800   -1.7308   62.4317 C.3     1  ZINC000533037883    0.0500
     29 C29       -10.9857   -1.9613   59.8387 C.3     1  ZINC000533037883    0.1300
     30 H30       -13.7804   -3.4543   57.4126 H       1  ZINC000533037883    0.4000
     31 H31       -12.7567   -5.6549   56.3927 H       1  ZINC000533037883    0.0700
     32 H32       -12.7611   -6.1319   58.1075 H       1  ZINC000533037883    0.0700
     33 H33       -14.7999   -6.9540   56.9905 H       1  ZINC000533037883    0.0800
     34 H34       -15.2180   -5.7134   58.1964 H       1  ZINC000533037883    0.0800
     35 H35       -15.2902   -6.3964   54.4473 H       1  ZINC000533037883    0.1800
     36 H36       -15.8572   -6.3953   52.5034 H       1  ZINC000533037883    0.1300
     37 H37       -16.5372   -6.3632   50.1383 H       1  ZINC000533037883    0.1300
     38 H38       -17.6372   -4.3721   49.1988 H       1  ZINC000533037883    0.1300
     39 H39       -18.0621   -2.4090   50.6213 H       1  ZINC000533037883    0.1300
     40 H40       -17.3923   -2.4345   52.9894 H       1  ZINC000533037883    0.1400
     41 H41       -15.8907   -3.2009   57.2315 H       1  ZINC000533037883    0.1900
     42 H42       -12.5079   -0.7093   57.7820 H       1  ZINC000533037883    0.0700
     43 H43       -13.8084   -1.9243   57.8817 H       1  ZINC000533037883    0.0800
     44 H44       -14.2660    0.1295   59.2692 H       1  ZINC000533037883    0.0800
     45 H45       -14.2070   -1.3667   60.2327 H       1  ZINC000533037883    0.0700
     46 H46       -11.8958    0.5941   59.8686 H       1  ZINC000533037883    0.0700
     47 H47       -12.9237    0.4709   61.3162 H       1  ZINC000533037883    0.0700
     48 H48       -11.3563    1.0376   63.0510 H       1  ZINC000533037883    0.0800
     49 H49       -11.9545   -0.5855   63.5369 H       1  ZINC000533037883    0.0800
     50 H50        -9.1923    0.6584   64.0228 H       1  ZINC000533037883    0.0600
     51 H51       -10.2433   -0.1983   65.1909 H       1  ZINC000533037883    0.0900
     52 H52       -10.0931   -2.6912   62.3814 H       1  ZINC000533037883    0.0700
     53 H53        -8.6592   -1.7713   61.8499 H       1  ZINC000533037883    0.0700
     54 H54       -10.4342   -2.8252   60.2100 H       1  ZINC000533037883    0.1000
     55 H55       -10.3102   -1.2989   59.2975 H       1  ZINC000533037883    0.0700
@<TRIPOS>BOND
     1     1     2    2
     2     2     3   am
     3     2    17   am
     4     3     4    1
     5     3    30    1
     6     4     5    1
     7     4    31    1
     8     4    32    1
     9     5     6    1
    10     5    33    1
    11     5    34    1
    12     6    16    1
    13     6     7    2
    14     7     8    1
    15     7    35    1
    16     8     9    1
    17     8    15    1
    18     9    14   ar
    19     9    10   ar
    20    10    11   ar
    21    10    36    1
    22    11    12   ar
    23    11    37    1
    24    12    13   ar
    25    12    38    1
    26    13    14   ar
    27    13    39    1
    28    14    40    1
    29    15    16    2
    30    16    41    1
    31    17    29    1
    32    17    18    1
    33    18    19    1
    34    18    42    1
    35    18    43    1
    36    19    20    1
    37    19    44    1
    38    19    45    1
    39    20    21    1
    40    20    46    1
    41    20    47    1
    42    21    22    1
    43    21    23    1
    44    21    29    1
    45    23    24    1
    46    23    28    1
    47    23    25    1
    48    25    26    1
    49    25    48    1
    50    25    49    1
    51    26    27    1
    52    26    50    1
    53    26    51    1
    54    27    28    1
    55    28    52    1
    56    28    53    1
    57    29    54    1
    58    29    55    1
@<TRIPOS>SUBSTRUCTURE
     1 ZINC000533037883        1 TEMP              0 ****  ****    0 ROOT


##########                                Name:    ZINC000543625960
##########                DOCK_Rotatable_Bonds:                   8
##########                         Heavy_Atoms:                  29
##########                    Molecular_Weight:             416.544
##########                DOCK_Rotatable_Bonds:                   8
##########                       Formal_Charge:           -0.010001
##########                     HBond_Acceptors:                   8
##########                        HBond_Donors:                   2
##########                         Heavy_Atoms:                  29
##########                          Grid_Score:          -29.396818
##########                     Grid_vdw_energy:          -27.843826
##########                      Grid_es_energy:           -1.552991
##########           Internal_energy_repulsive:           13.152196

@<TRIPOS>MOLECULE
ZINC000543625960
 57 59 1 0 0
SMALL
USER_CHARGES


@<TRIPOS>ATOM
      1 C1        -16.0970   -2.4206   61.0261 C.3     1  ZINC000543625960   -0.1500
      2 C2        -16.3273   -3.6655   60.1671 C.3     1  ZINC000543625960   -0.1300
      3 C3        -15.9229   -3.3695   58.7214 C.3     1  ZINC000543625960    0.1500
      4 H4        -15.0021   -2.7863   58.7138 H       1  ZINC000543625960    0.0800
      5 C5        -17.0350   -2.5756   58.0331 C.3     1  ZINC000543625960   -0.1700
      6 N6        -15.7084   -4.6300   58.0064 N.am    1  ZINC000543625960   -1.1100
      7 S7        -14.5762   -4.7160   56.8011 S.o2    1  ZINC000543625960    2.7000
      8 O8        -14.5011   -6.0823   56.4178 O.2     1  ZINC000543625960   -0.9600
      9 O9        -14.8797   -3.6688   55.8899 O.2     1  ZINC000543625960   -0.9500
     10 C10       -13.0181   -4.3145   57.5195 C.ar    1  ZINC000543625960   -0.6600
     11 C11       -12.1367   -5.3222   57.8648 C.ar    1  ZINC000543625960   -0.0400
     12 C12       -10.9129   -5.0113   58.4290 C.ar    1  ZINC000543625960   -0.1200
     13 C13       -10.5676   -3.6925   58.6492 C.ar    1  ZINC000543625960   -0.0600
     14 C14       -11.4506   -2.6779   58.3030 C.ar    1  ZINC000543625960    0.1500
     15 N15       -11.1037   -1.3403   58.5249 N.am    1  ZINC000543625960   -0.6800
     16 C16       -11.5687   -0.6951   59.6129 C.2     1  ZINC000543625960    0.7200
     17 O17       -12.2897   -1.2750   60.4017 O.2     1  ZINC000543625960   -0.5600
     18 N18       -11.2347    0.5930   59.8266 N.am    1  ZINC000543625960   -0.6300
     19 C19       -10.3728    1.4129   58.9556 C.3     1  ZINC000543625960    0.0900
     20 C20       -10.7895    2.8757   59.2493 C.3     1  ZINC000543625960   -0.1000
     21 H21        -9.9766    3.5662   59.0242 H       1  ZINC000543625960    0.1000
     22 C22       -12.0546    3.2516   58.4753 C.3     1  ZINC000543625960   -0.1500
     23 C23       -11.0659    2.8206   60.7751 C.3     1  ZINC000543625960   -0.1200
     24 C24       -11.6744    1.4150   60.9634 C.3     1  ZINC000543625960    0.2000
     25 H25       -12.7622    1.4813   60.9805 H       1  ZINC000543625960    0.0900
     26 C26       -11.1778    0.8099   62.2511 C.ar    1  ZINC000543625960   -0.1400
     27 C27        -9.8348    0.5063   62.4121 C.ar    1  ZINC000543625960   -0.0600
     28 C28        -9.4232   -0.0488   63.6143 C.ar    1  ZINC000543625960   -0.1700
     29 C29       -10.3585   -0.2795   64.6049 C.ar    1  ZINC000543625960    0.1000
     30 N30       -11.6287    0.0220   64.4167 N.ar    1  ZINC000543625960   -0.4800
     31 C31       -12.0549    0.5558   63.2889 C.ar    1  ZINC000543625960    0.1200
     32 C32       -12.6763   -2.9931   57.7320 C.ar    1  ZINC000543625960   -0.0500
     33 H33       -16.3852   -2.6315   62.0560 H       1  ZINC000543625960    0.0600
     34 H34       -15.0428   -2.1459   60.9927 H       1  ZINC000543625960    0.0600
     35 H35       -16.6993   -1.5974   60.6417 H       1  ZINC000543625960    0.0500
     36 H36       -15.7250   -4.4887   60.5515 H       1  ZINC000543625960    0.0700
     37 H37       -17.3815   -3.9402   60.2005 H       1  ZINC000543625960    0.0800
     38 H38       -17.1946   -1.6377   58.5651 H       1  ZINC000543625960    0.0700
     39 H39       -16.7469   -2.3648   57.0032 H       1  ZINC000543625960    0.0700
     40 H40       -17.9559   -3.1588   58.0406 H       1  ZINC000543625960    0.0600
     41 H41       -16.2297   -5.4144   58.2390 H       1  ZINC000543625960    0.4200
     42 H42       -12.4046   -6.3544   57.6940 H       1  ZINC000543625960    0.1400
     43 H43       -10.2267   -5.8007   58.6980 H       1  ZINC000543625960    0.1400
     44 H44        -9.6121   -3.4502   59.0904 H       1  ZINC000543625960    0.1400
     45 H45       -10.5285   -0.8777   57.8957 H       1  ZINC000543625960    0.4100
     46 H46        -9.3235    1.2595   59.2074 H       1  ZINC000543625960    0.0700
     47 H47       -10.5519    1.1705   57.9081 H       1  ZINC000543625960    0.0800
     48 H48       -12.8632    2.5740   58.7495 H       1  ZINC000543625960    0.0600
     49 H49       -12.3395    4.2750   58.7196 H       1  ZINC000543625960    0.0600
     50 H50       -11.8624    3.1736   57.4052 H       1  ZINC000543625960    0.0600
     51 H51       -10.1386    2.9220   61.3389 H       1  ZINC000543625960    0.0800
     52 H52       -11.7812    3.5901   61.0655 H       1  ZINC000543625960    0.0900
     53 H53        -9.1261    0.6973   61.6200 H       1  ZINC000543625960    0.1300
     54 H54        -8.3846   -0.2982   63.7743 H       1  ZINC000543625960    0.1400
     55 H55       -10.0461   -0.7118   65.5439 H       1  ZINC000543625960    0.1600
     56 H56       -13.1028    0.7892   63.1714 H       1  ZINC000543625960    0.1400
     57 H57       -13.3652   -2.2064   57.4618 H       1  ZINC000543625960    0.1400
@<TRIPOS>BOND
     1     1     2    1
     2     1    33    1
     3     1    34    1
     4     1    35    1
     5     2     3    1
     6     2    36    1
     7     2    37    1
     8     3     4    1
     9     3     5    1
    10     3     6    1
    11     5    38    1
    12     5    39    1
    13     5    40    1
    14     6     7   am
    15     6    41    1
    16     7     8    2
    17     7     9    2
    18     7    10    1
    19    10    32   ar
    20    10    11   ar
    21    11    12   ar
    22    11    42    1
    23    12    13   ar
    24    12    43    1
    25    13    14   ar
    26    13    44    1
    27    14    15    1
    28    14    32   ar
    29    15    16   am
    30    15    45    1
    31    16    17    2
    32    16    18   am
    33    18    24    1
    34    18    19    1
    35    19    20    1
    36    19    46    1
    37    19    47    1
    38    20    21    1
    39    20    22    1
    40    20    23    1
    41    22    48    1
    42    22    49    1
    43    22    50    1
    44    23    24    1
    45    23    51    1
    46    23    52    1
    47    24    25    1
    48    24    26    1
    49    26    31   ar
    50    26    27   ar
    51    27    28   ar
    52    27    53    1
    53    28    29   ar
    54    28    54    1
    55    29    30   ar
    56    29    55    1
    57    30    31   ar
    58    31    56    1
    59    32    57    1
@<TRIPOS>SUBSTRUCTURE
     1 ZINC000543625960        1 TEMP              0 ****  ****    0 ROOT


##########                                Name:    ZINC000174621331
##########                DOCK_Rotatable_Bonds:                   8
##########                         Heavy_Atoms:                  25
##########                    Molecular_Weight:             366.438
##########                DOCK_Rotatable_Bonds:                   8
##########                       Formal_Charge:        -5.96046e-08
##########                     HBond_Acceptors:                   8
##########                        HBond_Donors:                   3
##########                         Heavy_Atoms:                  25
##########                          Grid_Score:          -29.386169
##########                     Grid_vdw_energy:          -27.271473
##########                      Grid_es_energy:           -2.114696
##########           Internal_energy_repulsive:           10.966571

@<TRIPOS>MOLECULE
ZINC000174621331
 47 48 1 0 0
SMALL
USER_CHARGES


@<TRIPOS>ATOM
      1 C1        -10.1981   -0.3547   55.4126 C.3     1  ZINC000174621331    0.0300
      2 O2        -10.3699   -1.2498   56.5133 O.3     1  ZINC000174621331   -0.3800
      3 C3        -11.4957   -2.1204   56.3843 C.3     1  ZINC000174621331    0.0500
      4 C4        -11.6005   -3.0062   57.6273 C.3     1  ZINC000174621331    0.2400
      5 H5        -10.7071   -3.6254   57.7086 H       1  ZINC000174621331    0.1300
      6 N6        -11.7203   -2.1629   58.8193 N.am    1  ZINC000174621331   -0.7200
      7 C7        -11.3852   -2.6542   60.0287 C.2     1  ZINC000174621331    0.5600
      8 O8        -10.9851   -3.7974   60.1307 O.2     1  ZINC000174621331   -0.5300
      9 C9        -11.5044   -1.8027   61.2314 C.ar    1  ZINC000174621331   -0.1600
     10 C10       -10.3651   -1.4501   61.9562 C.ar    1  ZINC000174621331   -0.0200
     11 C11       -10.4833   -0.6547   63.0775 C.ar    1  ZINC000174621331   -0.1100
     12 C12        -9.2542   -0.2730   63.8613 C.3     1  ZINC000174621331   -0.1200
     13 C13       -11.7275   -0.2066   63.4834 C.ar    1  ZINC000174621331    0.0400
     14 C14       -11.8489    0.6623   64.7087 C.3     1  ZINC000174621331   -0.1600
     15 C15       -12.8611   -0.5522   62.7689 C.ar    1  ZINC000174621331   -0.6800
     16 S16       -14.4411    0.0245   63.2943 S.o2    1  ZINC000174621331    2.7000
     17 N17       -15.5023   -0.2554   62.0542 N.am    1  ZINC000174621331   -1.2500
     18 O18       -14.8416   -0.8209   64.3638 O.2     1  ZINC000174621331   -0.9500
     19 O19       -14.3320    1.4359   63.4183 O.2     1  ZINC000174621331   -0.9600
     20 C20       -12.7564   -1.3431   61.6437 C.ar    1  ZINC000174621331    0.0400
     21 C21       -12.8157   -3.8902   57.5132 C.2     1  ZINC000174621331   -0.0200
     22 C22       -14.0599   -3.5725   57.9139 C.2     1  ZINC000174621331   -0.1900
     23 C23       -14.8816   -4.6845   57.6189 C.2     1  ZINC000174621331   -0.2100
     24 C24       -14.0904   -5.6152   57.0557 C.2     1  ZINC000174621331    0.0000
     25 C25       -14.5322   -6.9733   56.5745 C.3     1  ZINC000174621331   -0.0800
     26 O26       -12.8413   -5.1263   56.9888 O.3     1  ZINC000174621331   -0.1600
     27 H27       -10.0579   -0.9282   54.4964 H       1  ZINC000174621331    0.0400
     28 H28       -11.0824    0.2752   55.3152 H       1  ZINC000174621331    0.0400
     29 H29        -9.3232    0.2717   55.5868 H       1  ZINC000174621331    0.0900
     30 H30       -12.4043   -1.5268   56.2835 H       1  ZINC000174621331    0.0700
     31 H31       -11.3711   -2.7469   55.5011 H       1  ZINC000174621331    0.0700
     32 H32       -12.0407   -1.2510   58.7380 H       1  ZINC000174621331    0.4100
     33 H33        -9.3932   -1.7994   61.6404 H       1  ZINC000174621331    0.1400
     34 H34        -8.8463    0.6578   63.4671 H       1  ZINC000174621331    0.0800
     35 H35        -9.5193   -0.1381   64.9100 H       1  ZINC000174621331    0.0800
     36 H36        -8.5077   -1.0625   63.7740 H       1  ZINC000174621331    0.0700
     37 H37       -11.7664    1.7103   64.4207 H       1  ZINC000174621331    0.1100
     38 H38       -12.8158    0.4904   65.1817 H       1  ZINC000174621331    0.0700
     39 H39       -11.0522    0.4145   65.4101 H       1  ZINC000174621331    0.0900
     40 H40       -15.3546    0.1546   61.1876 H       1  ZINC000174621331    0.4200
     41 H41       -16.2716   -0.8292   62.1944 H       1  ZINC000174621331    0.4200
     42 H42       -13.6419   -1.6118   61.0868 H       1  ZINC000174621331    0.1600
     43 H43       -14.3712   -2.6460   58.3732 H       1  ZINC000174621331    0.1500
     44 H44       -15.9412   -4.7704   57.8097 H       1  ZINC000174621331    0.1500
     45 H45       -14.8369   -6.9074   55.5301 H       1  ZINC000174621331    0.0800
     46 H46       -13.7063   -7.6783   56.6682 H       1  ZINC000174621331    0.0800
     47 H47       -15.3730   -7.3166   57.1773 H       1  ZINC000174621331    0.0900
@<TRIPOS>BOND
     1     1     2    1
     2     1    27    1
     3     1    28    1
     4     1    29    1
     5     2     3    1
     6     3     4    1
     7     3    30    1
     8     3    31    1
     9     4     5    1
    10     4     6    1
    11     4    21    1
    12     6     7   am
    13     6    32    1
    14     7     8    2
    15     7     9    1
    16     9    20   ar
    17     9    10   ar
    18    10    11   ar
    19    10    33    1
    20    11    12    1
    21    11    13   ar
    22    12    34    1
    23    12    35    1
    24    12    36    1
    25    13    14    1
    26    13    15   ar
    27    14    37    1
    28    14    38    1
    29    14    39    1
    30    15    16    1
    31    15    20   ar
    32    16    17   am
    33    16    18    2
    34    16    19    2
    35    17    40    1
    36    17    41    1
    37    20    42    1
    38    21    26    1
    39    21    22    2
    40    22    23    1
    41    22    43    1
    42    23    24    2
    43    23    44    1
    44    24    25    1
    45    24    26    1
    46    25    45    1
    47    25    46    1
    48    25    47    1
@<TRIPOS>SUBSTRUCTURE
     1 ZINC000174621331        1 TEMP              0 ****  ****    0 ROOT


##########                                Name:    ZINC000655982608
##########                DOCK_Rotatable_Bonds:                   5
##########                         Heavy_Atoms:                  29
##########                    Molecular_Weight:             388.469
##########                DOCK_Rotatable_Bonds:                   5
##########                       Formal_Charge:          -0.0200006
##########                     HBond_Acceptors:                   6
##########                        HBond_Donors:                   0
##########                         Heavy_Atoms:                  29
##########                          Grid_Score:          -29.355816
##########                     Grid_vdw_energy:          -29.038067
##########                      Grid_es_energy:           -0.317748
##########           Internal_energy_repulsive:           23.788628

@<TRIPOS>MOLECULE
ZINC000655982608
 53 57 1 0 0
SMALL
USER_CHARGES


@<TRIPOS>ATOM
      1 C1        -10.8989   -2.8164   60.5249 C.3     1  ZINC000655982608   -0.1900
      2 C2         -9.9930   -1.8619   59.7443 C.3     1  ZINC000655982608    0.0800
      3 H3         -8.9498   -2.1168   59.9310 H       1  ZINC000655982608    0.1000
      4 C4        -10.2889   -1.9871   58.2484 C.3     1  ZINC000655982608   -0.0300
      5 C5         -9.6775   -0.8205   57.5160 C.2     1  ZINC000655982608    0.2000
      6 N6        -10.2353   -0.1214   56.5571 N.2     1  ZINC000655982608   -0.4800
      7 C7         -9.3266    0.8078   56.2110 C.2     1  ZINC000655982608    0.1700
      8 C8         -9.4901    1.8622   55.1468 C.3     1  ZINC000655982608   -0.0100
      9 H9         -9.8302    2.8024   55.5809 H       1  ZINC000655982608    0.1300
     10 C10        -8.1752    2.0606   54.3578 C.3     1  ZINC000655982608   -0.1400
     11 C11        -8.6292    2.3062   52.9357 C.2     1  ZINC000655982608    0.5200
     12 O12        -7.9387    2.7791   52.0579 O.2     1  ZINC000655982608   -0.5000
     13 N13        -9.9092    1.9235   52.7866 N.am    1  ZINC000655982608   -0.5600
     14 C14       -10.6297    2.0265   51.5916 C.ar    1  ZINC000655982608    0.1600
     15 C15       -10.4739    3.1420   50.7790 C.ar    1  ZINC000655982608   -0.1600
     16 C16       -11.1866    3.2408   49.6002 C.ar    1  ZINC000655982608   -0.0900
     17 C17       -12.0550    2.2308   49.2288 C.ar    1  ZINC000655982608   -0.1400
     18 C18       -12.2129    1.1191   50.0358 C.ar    1  ZINC000655982608   -0.0900
     19 C19       -11.4980    1.0112   51.2127 C.ar    1  ZINC000655982608   -0.1600
     20 C20       -10.4544    1.3843   54.0386 C.3     1  ZINC000655982608    0.1100
     21 N21        -8.2821    0.6297   56.9632 N.2     1  ZINC000655982608   -0.3700
     22 O22        -8.4654   -0.2972   57.7238 O.3     1  ZINC000655982608    0.0900
     23 N23       -10.2452   -0.4817   60.1795 N.3     1  ZINC000655982608   -0.4700
     24 C24       -11.6286   -0.0689   59.8576 C.3     1  ZINC000655982608    0.0300
     25 C25       -11.9563    0.9289   60.9921 C.3     1  ZINC000655982608   -0.0800
     26 C26       -11.0385    0.4793   62.1115 C.ar    1  ZINC000655982608   -0.1400
     27 C27       -11.0392    0.7564   63.4621 C.ar    1  ZINC000655982608   -0.0800
     28 C28       -10.0732    0.2035   64.2839 C.ar    1  ZINC000655982608   -0.1400
     29 C29        -9.1072   -0.6281   63.7485 C.ar    1  ZINC000655982608   -0.0900
     30 C30        -9.1008   -0.9069   62.3974 C.ar    1  ZINC000655982608   -0.1400
     31 C31       -10.0684   -0.3513   61.5625 C.ar    1  ZINC000655982608    0.1000
     32 H32       -10.6352   -3.8461   60.2840 H       1  ZINC000655982608    0.0700
     33 H33       -10.7683   -2.6485   61.5939 H       1  ZINC000655982608    0.0700
     34 H34       -11.9386   -2.6344   60.2529 H       1  ZINC000655982608    0.0700
     35 H35        -9.8634   -2.9168   57.8704 H       1  ZINC000655982608    0.1200
     36 H36       -11.3673   -1.9905   58.0904 H       1  ZINC000655982608    0.1100
     37 H37        -7.6286    2.9236   54.7381 H       1  ZINC000655982608    0.1200
     38 H38        -7.5588    1.1633   54.4118 H       1  ZINC000655982608    0.1200
     39 H39        -9.7964    3.9315   51.0690 H       1  ZINC000655982608    0.1200
     40 H40       -11.0659    4.1080   48.9679 H       1  ZINC000655982608    0.1300
     41 H41       -12.6114    2.3106   48.3066 H       1  ZINC000655982608    0.1200
     42 H42       -12.8923    0.3322   49.7433 H       1  ZINC000655982608    0.1300
     43 H43       -11.6217    0.1426   51.8426 H       1  ZINC000655982608    0.1500
     44 H44       -10.4762    0.2951   54.0022 H       1  ZINC000655982608    0.0900
     45 H45       -11.4561    1.7768   54.2136 H       1  ZINC000655982608    0.1000
     46 H46       -11.6690    0.4236   58.8860 H       1  ZINC000655982608    0.1000
     47 H47       -12.3041   -0.9237   59.8874 H       1  ZINC000655982608    0.0700
     48 H48       -11.7232    1.9493   60.6882 H       1  ZINC000655982608    0.0900
     49 H49       -13.0009    0.8433   61.2916 H       1  ZINC000655982608    0.0800
     50 H50       -11.7944    1.4063   63.8789 H       1  ZINC000655982608    0.1200
     51 H51       -10.0737    0.4214   65.3417 H       1  ZINC000655982608    0.1200
     52 H52        -8.3544   -1.0609   64.3906 H       1  ZINC000655982608    0.1300
     53 H53        -8.3432   -1.5570   61.9854 H       1  ZINC000655982608    0.1200
@<TRIPOS>BOND
     1     1     2    1
     2     1    32    1
     3     1    33    1
     4     1    34    1
     5     2     3    1
     6     2     4    1
     7     2    23    1
     8     4     5    1
     9     4    35    1
    10     4    36    1
    11     5    22    1
    12     5     6    2
    13     6     7    1
    14     7     8    1
    15     7    21    2
    16     8     9    1
    17     8    20    1
    18     8    10    1
    19    10    11    1
    20    10    37    1
    21    10    38    1
    22    11    12    2
    23    11    13   am
    24    13    14    1
    25    13    20    1
    26    14    19   ar
    27    14    15   ar
    28    15    16   ar
    29    15    39    1
    30    16    17   ar
    31    16    40    1
    32    17    18   ar
    33    17    41    1
    34    18    19   ar
    35    18    42    1
    36    19    43    1
    37    20    44    1
    38    20    45    1
    39    21    22    1
    40    23    31    1
    41    23    24    1
    42    24    25    1
    43    24    46    1
    44    24    47    1
    45    25    26    1
    46    25    48    1
    47    25    49    1
    48    26    31   ar
    49    26    27   ar
    50    27    28   ar
    51    27    50    1
    52    28    29   ar
    53    28    51    1
    54    29    30   ar
    55    29    52    1
    56    30    31   ar
    57    30    53    1
@<TRIPOS>SUBSTRUCTURE
     1 ZINC000655982608        1 TEMP              0 ****  ****    0 ROOT


##########                                Name:    ZINC000548281822
##########                DOCK_Rotatable_Bonds:                   6
##########                         Heavy_Atoms:                  24
##########                    Molecular_Weight:             332.406
##########                DOCK_Rotatable_Bonds:                   6
##########                       Formal_Charge:        -5.58794e-08
##########                     HBond_Acceptors:                   8
##########                        HBond_Donors:                   2
##########                         Heavy_Atoms:                  24
##########                          Grid_Score:          -29.348713
##########                     Grid_vdw_energy:          -28.685102
##########                      Grid_es_energy:           -0.663611
##########           Internal_energy_repulsive:            6.909223

@<TRIPOS>MOLECULE
ZINC000548281822
 48 50 1 0 0
SMALL
USER_CHARGES


@<TRIPOS>ATOM
      1 C1        -14.8303   -6.8397   56.4493 C.3     1  ZINC000548281822   -0.1700
      2 C2        -14.9607   -5.4952   55.7307 C.3     1  ZINC000548281822    0.2600
      3 H3        -15.7020   -4.8806   56.2415 H       1  ZINC000548281822    0.1400
      4 N4        -13.6665   -4.8087   55.7407 N.am    1  ZINC000548281822   -0.7400
      5 C5        -13.2323   -4.2056   56.8650 C.2     1  ZINC000548281822    0.7100
      6 O6        -13.9153   -4.2299   57.8707 O.2     1  ZINC000548281822   -0.5700
      7 N7        -12.0410   -3.5753   56.8747 N.am    1  ZINC000548281822   -0.7400
      8 C8        -11.5683   -2.9212   58.0973 C.3     1  ZINC000548281822    0.1600
      9 H9        -12.1013   -3.3275   58.9570 H       1  ZINC000548281822    0.1000
     10 C10       -10.0662   -3.1704   58.2626 C.3     1  ZINC000548281822   -0.1400
     11 C11        -9.6178   -2.6927   59.6481 C.3     1  ZINC000548281822    0.1100
     12 N12       -10.1035   -1.3266   59.8564 N.pl3   1  ZINC000548281822   -0.4600
     13 C13        -9.6780   -0.4211   60.7822 C.2     1  ZINC000548281822   -0.0500
     14 C14       -10.4109    0.6956   60.5970 C.2     1  ZINC000548281822   -0.0300
     15 N15       -11.2615    0.4722   59.5821 N.2     1  ZINC000548281822   -0.4900
     16 C16       -11.0845   -0.7360   59.1334 C.2     1  ZINC000548281822    0.2100
     17 C17       -11.8239   -1.4117   58.0025 C.3     1  ZINC000548281822   -0.0500
     18 C18       -15.3955   -5.7268   54.3066 C.2     1  ZINC000548281822    0.1700
     19 N19       -16.6293   -5.8134   53.8710 N.2     1  ZINC000548281822   -0.4600
     20 C20       -16.5317   -6.0217   52.5458 C.2     1  ZINC000548281822    0.1900
     21 C21       -17.6783   -6.1901   51.5826 C.3     1  ZINC000548281822    0.0200
     22 C22       -18.8667   -6.8223   52.3098 C.3     1  ZINC000548281822   -0.1400
     23 C23       -18.0866   -4.8223   51.0316 C.3     1  ZINC000548281822   -0.1400
     24 C24       -17.2458   -7.0964   50.4283 C.3     1  ZINC000548281822   -0.1400
     25 N25       -15.2670   -6.0507   52.2486 N.2     1  ZINC000548281822   -0.3700
     26 O26       -14.5974   -5.8775   53.2452 O.3     1  ZINC000548281822    0.0800
     27 H27       -14.0890   -7.4543   55.9384 H       1  ZINC000548281822    0.0700
     28 H28       -14.5159   -6.6721   57.4793 H       1  ZINC000548281822    0.0900
     29 H29       -15.7932   -7.3505   56.4419 H       1  ZINC000548281822    0.0800
     30 H30       -13.1222   -4.7882   54.9381 H       1  ZINC000548281822    0.4000
     31 H31       -11.4967   -3.5548   56.0721 H       1  ZINC000548281822    0.4000
     32 H32        -9.8616   -4.2362   58.1621 H       1  ZINC000548281822    0.1000
     33 H33        -9.5204   -2.6218   57.4950 H       1  ZINC000548281822    0.0800
     34 H34       -10.0332   -3.3488   60.4129 H       1  ZINC000548281822    0.0900
     35 H35        -8.5292   -2.7059   59.7045 H       1  ZINC000548281822    0.1000
     36 H36        -8.9044   -0.5695   61.5211 H       1  ZINC000548281822    0.1800
     37 H37       -10.3286    1.6099   61.1659 H       1  ZINC000548281822    0.1700
     38 H38       -11.4570   -1.0363   57.0472 H       1  ZINC000548281822    0.0900
     39 H39       -12.8919   -1.2128   58.0908 H       1  ZINC000548281822    0.1000
     40 H40       -19.1748   -6.1766   53.1322 H       1  ZINC000548281822    0.0600
     41 H41       -19.6961   -6.9442   51.6132 H       1  ZINC000548281822    0.0700
     42 H42       -18.5757   -7.7968   52.7024 H       1  ZINC000548281822    0.0700
     43 H43       -17.2400   -4.3719   50.5135 H       1  ZINC000548281822    0.0600
     44 H44       -18.9160   -4.9442   50.3349 H       1  ZINC000548281822    0.0700
     45 H45       -18.3947   -4.1766   51.8539 H       1  ZINC000548281822    0.0600
     46 H46       -16.9549   -8.0709   50.8208 H       1  ZINC000548281822    0.0700
     47 H47       -18.0752   -7.2183   49.7316 H       1  ZINC000548281822    0.0700
     48 H48       -16.3993   -6.6460   49.9102 H       1  ZINC000548281822    0.0600
@<TRIPOS>BOND
     1     1     2    1
     2     1    27    1
     3     1    28    1
     4     1    29    1
     5     2     3    1
     6     2     4    1
     7     2    18    1
     8     4     5   am
     9     4    30    1
    10     5     6    2
    11     5     7   am
    12     7     8    1
    13     7    31    1
    14     8     9    1
    15     8    17    1
    16     8    10    1
    17    10    11    1
    18    10    32    1
    19    10    33    1
    20    11    12    1
    21    11    34    1
    22    11    35    1
    23    12    16    1
    24    12    13    1
    25    13    14    2
    26    13    36    1
    27    14    15    1
    28    14    37    1
    29    15    16    2
    30    16    17    1
    31    17    38    1
    32    17    39    1
    33    18    26    1
    34    18    19    2
    35    19    20    1
    36    20    21    1
    37    20    25    2
    38    21    22    1
    39    21    23    1
    40    21    24    1
    41    22    40    1
    42    22    41    1
    43    22    42    1
    44    23    43    1
    45    23    44    1
    46    23    45    1
    47    24    46    1
    48    24    47    1
    49    24    48    1
    50    25    26    1
@<TRIPOS>SUBSTRUCTURE
     1 ZINC000548281822        1 TEMP              0 ****  ****    0 ROOT


##########                                Name:    ZINC001065334255
##########                DOCK_Rotatable_Bonds:                   7
##########                         Heavy_Atoms:                  23
##########                    Molecular_Weight:             346.448
##########                DOCK_Rotatable_Bonds:                   7
##########                       Formal_Charge:        -5.81145e-07
##########                     HBond_Acceptors:                   8
##########                        HBond_Donors:                   1
##########                         Heavy_Atoms:                  23
##########                          Grid_Score:          -29.335421
##########                     Grid_vdw_energy:          -26.098845
##########                      Grid_es_energy:           -3.236577
##########           Internal_energy_repulsive:           19.033278

@<TRIPOS>MOLECULE
ZINC001065334255
 49 50 1 0 0
SMALL
USER_CHARGES


@<TRIPOS>ATOM
      1 C1          5.7057    1.7505   52.5554 C.3     1  ZINC001065334255   -0.1500
      2 C2          4.7586    0.5559   52.4260 C.3     1  ZINC001065334255   -0.0800
      3 C3          5.2449   -0.5805   53.3278 C.3     1  ZINC001065334255   -0.1500
      4 C4          3.3489    0.9745   52.8485 C.3     1  ZINC001065334255   -0.1400
      5 C5          2.8698    2.0937   51.9604 C.2     1  ZINC001065334255    0.5100
      6 O6          3.0851    3.2468   52.2686 O.2     1  ZINC001065334255   -0.5300
      7 N7          2.2021    1.8133   50.8238 N.am    1  ZINC001065334255   -0.7300
      8 C8          1.7379    2.9014   49.9595 C.3     1  ZINC001065334255    0.1300
      9 C9          0.5373    2.4246   49.1397 C.3     1  ZINC001065334255    0.0700
     10 H10         0.0123    3.2865   48.7278 H       1  ZINC001065334255    0.0700
     11 C11         1.0224    1.5261   47.9963 C.3     1  ZINC001065334255    0.0800
     12 N12        -0.1541    0.9327   47.3413 N.am    1  ZINC001065334255   -0.6100
     13 C13        -0.3059    0.9903   46.0033 C.2     1  ZINC001065334255    0.5400
     14 O14        -1.2824    0.4948   45.4819 O.2     1  ZINC001065334255   -0.5200
     15 C15         0.7377    1.6703   45.1551 C.3     1  ZINC001065334255   -0.1100
     16 H16         1.7274    1.5128   45.5839 H       1  ZINC001065334255    0.1200
     17 C17         0.4388    3.1767   45.0587 C.3     1  ZINC001065334255   -0.1000
     18 C18         1.2997    3.7804   43.9313 C.3     1  ZINC001065334255   -0.5900
     19 S19         1.5774    2.4062   42.7564 S.o2    1  ZINC001065334255    2.3900
     20 O20         0.8740    2.6686   41.5500 O.2     1  ZINC001065334255   -0.9300
     21 O21         2.9633    2.0953   42.7144 O.2     1  ZINC001065334255   -0.9300
     22 C22         0.6910    1.1143   43.7085 C.3     1  ZINC001065334255   -0.5900
     23 C23        -1.1597    0.2741   48.1900 C.3     1  ZINC001065334255    0.0600
     24 C24        -1.5385    1.2336   49.3240 C.3     1  ZINC001065334255    0.0500
     25 O25        -0.3497    1.6818   49.9795 O.3     1  ZINC001065334255   -0.3700
     26 H26         6.7100    1.4523   52.2545 H       1  ZINC001065334255    0.0600
     27 H27         5.3593    2.5601   51.9130 H       1  ZINC001065334255    0.0500
     28 H28         5.7226    2.0903   53.5910 H       1  ZINC001065334255    0.0600
     29 H29         4.7417    0.2160   51.3906 H       1  ZINC001065334255    0.0800
     30 H30         5.2618   -0.2407   54.3634 H       1  ZINC001065334255    0.0500
     31 H31         4.5702   -1.4315   53.2356 H       1  ZINC001065334255    0.0700
     32 H32         6.2492   -0.8787   53.0268 H       1  ZINC001065334255    0.0500
     33 H33         2.6742    0.1233   52.7565 H       1  ZINC001065334255    0.0900
     34 H34         3.3659    1.3142   53.8841 H       1  ZINC001065334255    0.0900
     35 H35         2.0288    0.8911   50.5780 H       1  ZINC001065334255    0.4000
     36 H36         1.4437    3.7526   50.5734 H       1  ZINC001065334255    0.0900
     37 H37         2.5421    3.1992   49.2868 H       1  ZINC001065334255    0.0800
     38 H38         1.5834    2.1204   47.2751 H       1  ZINC001065334255    0.1100
     39 H39         1.6582    0.7357   48.3951 H       1  ZINC001065334255    0.0900
     40 H40        -0.6172    3.3271   44.8340 H       1  ZINC001065334255    0.1000
     41 H41         0.6825    3.6600   46.0048 H       1  ZINC001065334255    0.1000
     42 H42         0.7654    4.5947   43.4418 H       1  ZINC001065334255    0.1500
     43 H43         2.2501    4.1357   44.3296 H       1  ZINC001065334255    0.1400
     44 H44         1.2124    0.1593   43.6430 H       1  ZINC001065334255    0.1400
     45 H45        -0.3388    1.0184   43.3647 H       1  ZINC001065334255    0.1500
     46 H46        -2.0436    0.0393   47.5971 H       1  ZINC001065334255    0.1000
     47 H47        -0.7435   -0.6425   48.6083 H       1  ZINC001065334255    0.0900
     48 H48        -2.0717    2.0907   48.9127 H       1  ZINC001065334255    0.0600
     49 H49        -2.1765    0.7165   50.0406 H       1  ZINC001065334255    0.1100
@<TRIPOS>BOND
     1     1     2    1
     2     1    26    1
     3     1    27    1
     4     1    28    1
     5     2     3    1
     6     2     4    1
     7     2    29    1
     8     3    30    1
     9     3    31    1
    10     3    32    1
    11     4     5    1
    12     4    33    1
    13     4    34    1
    14     5     6    2
    15     5     7   am
    16     7     8    1
    17     7    35    1
    18     8     9    1
    19     8    36    1
    20     8    37    1
    21     9    10    1
    22     9    25    1
    23     9    11    1
    24    11    12    1
    25    11    38    1
    26    11    39    1
    27    12    13   am
    28    12    23    1
    29    13    14    2
    30    13    15    1
    31    15    16    1
    32    15    22    1
    33    15    17    1
    34    17    18    1
    35    17    40    1
    36    17    41    1
    37    18    19    1
    38    18    42    1
    39    18    43    1
    40    19    20    2
    41    19    21    2
    42    19    22    1
    43    22    44    1
    44    22    45    1
    45    23    24    1
    46    23    46    1
    47    23    47    1
    48    24    25    1
    49    24    48    1
    50    24    49    1
@<TRIPOS>SUBSTRUCTURE
     1 ZINC001065334255        1 TEMP              0 ****  ****    0 ROOT


##########                                Name:    ZINC000991934963
##########                DOCK_Rotatable_Bonds:                   8
##########                         Heavy_Atoms:                  27
##########                    Molecular_Weight:             370.495
##########                DOCK_Rotatable_Bonds:                   8
##########                       Formal_Charge:          -0.0499997
##########                     HBond_Acceptors:                   6
##########                        HBond_Donors:                   1
##########                         Heavy_Atoms:                  27
##########                          Grid_Score:          -29.326885
##########                     Grid_vdw_energy:          -27.959618
##########                      Grid_es_energy:           -1.367267
##########           Internal_energy_repulsive:           13.032942

@<TRIPOS>MOLECULE
ZINC000991934963
 57 61 1 0 0
SMALL
USER_CHARGES


@<TRIPOS>ATOM
      1 C1        -14.5876   -0.4419   62.6757 C.3     1  ZINC000991934963    0.0400
      2 O2        -13.9020    0.2475   63.7230 O.3     1  ZINC000991934963   -0.2900
      3 C3        -12.5484    0.1958   63.7101 C.ar    1  ZINC000991934963    0.5000
      4 N4        -11.8625    1.0637   64.4358 N.ar    1  ZINC000991934963   -0.5700
      5 C5        -10.5397    1.0412   64.4460 C.ar    1  ZINC000991934963    0.1900
      6 C6         -9.8742    0.0937   63.6846 C.ar    1  ZINC000991934963   -0.2700
      7 C7        -10.6245   -0.8000   62.9364 C.ar    1  ZINC000991934963    0.2200
      8 C8         -9.9449   -1.8477   62.0931 C.3     1  ZINC000991934963    0.1000
      9 N9        -10.5523   -1.8695   60.7557 N.3     1  ZINC000991934963   -0.4900
     10 C10       -10.1124   -3.0762   59.9863 C.3     1  ZINC000991934963    0.0400
     11 C11        -9.5689   -2.5564   58.6184 C.3     1  ZINC000991934963   -0.1400
     12 C12       -10.2983   -1.2202   58.4955 C.3     1  ZINC000991934963    0.1700
     13 N13       -11.6978   -1.3841   58.0948 N.am    1  ZINC000991934963   -0.7000
     14 C14       -12.0000   -1.7275   56.8270 C.2     1  ZINC000991934963    0.5200
     15 O15       -11.1133   -1.8993   56.0175 O.2     1  ZINC000991934963   -0.5300
     16 C16       -13.4396   -1.8978   56.4152 C.3     1  ZINC000991934963   -0.1100
     17 C17       -14.1316   -2.8719   57.3708 C.3     1  ZINC000991934963   -0.1300
     18 H18       -13.4673   -3.5035   57.9608 H       1  ZINC000991934963    0.1200
     19 C19       -15.4651   -3.4736   56.9230 C.3     1  ZINC000991934963   -0.1700
     20 C20       -15.4357   -2.4125   58.0258 C.3     1  ZINC000991934963   -0.1200
     21 H21       -15.8010   -1.4165   57.7758 H       1  ZINC000991934963    0.1000
     22 C22       -15.7085   -2.8750   59.4586 C.3     1  ZINC000991934963   -0.1200
     23 C23       -16.7963   -2.1391   60.2434 C.3     1  ZINC000991934963   -0.1800
     24 C24       -17.0476   -3.5607   59.7367 C.3     1  ZINC000991934963   -0.1800
     25 C25        -9.6168   -0.0494   57.7954 C.3     1  ZINC000991934963   -0.1200
     26 C26       -10.2062    1.1823   58.5510 C.3     1  ZINC000991934963   -0.1200
     27 C27       -10.6151    0.6615   59.9622 C.3     1  ZINC000991934963   -0.1000
     28 C28       -10.1312   -0.7489   59.9859 C.3     1  ZINC000991934963    0.0500
     29 H29        -9.0503   -0.6933   60.1152 H       1  ZINC000991934963    0.0400
     30 N30       -11.9446   -0.7250   62.9761 N.ar    1  ZINC000991934963   -0.5000
     31 H31       -14.3347   -1.5015   62.7118 H       1  ZINC000991934963    0.0600
     32 H32       -15.6632   -0.3205   62.8041 H       1  ZINC000991934963    0.1100
     33 H33       -14.2879   -0.0294   61.7123 H       1  ZINC000991934963    0.0600
     34 H34        -9.9852    1.7526   65.0402 H       1  ZINC000991934963    0.1700
     35 H35        -8.7950    0.0528   63.6740 H       1  ZINC000991934963    0.1500
     36 H36        -8.8840   -1.6126   62.0065 H       1  ZINC000991934963    0.1000
     37 H37       -10.0634   -2.8246   62.5618 H       1  ZINC000991934963    0.0600
     38 H38        -9.3234   -3.5978   60.5280 H       1  ZINC000991934963    0.0600
     39 H39       -10.9583   -3.7441   59.8228 H       1  ZINC000991934963    0.0800
     40 H40        -8.4892   -2.4114   58.6554 H       1  ZINC000991934963    0.0800
     41 H41        -9.8444   -3.2292   57.8062 H       1  ZINC000991934963    0.0900
     42 H42       -12.4070   -1.2455   58.7418 H       1  ZINC000991934963    0.4000
     43 H43       -13.9445   -0.9325   56.4518 H       1  ZINC000991934963    0.1000
     44 H44       -13.4830   -2.2922   55.4001 H       1  ZINC000991934963    0.0900
     45 H45       -15.8494   -3.1755   55.9475 H       1  ZINC000991934963    0.0900
     46 H46       -15.6782   -4.5009   57.2186 H       1  ZINC000991934963    0.1000
     47 H47       -14.8382   -3.2267   60.0128 H       1  ZINC000991934963    0.1000
     48 H48       -16.6419   -2.0064   61.3143 H       1  ZINC000991934963    0.0900
     49 H49       -17.3177   -1.3255   59.7390 H       1  ZINC000991934963    0.0900
     50 H50       -17.7343   -3.6824   58.8990 H       1  ZINC000991934963    0.0900
     51 H51       -17.0585   -4.3633   60.4741 H       1  ZINC000991934963    0.0900
     52 H52        -8.5352   -0.0994   57.9207 H       1  ZINC000991934963    0.0800
     53 H53        -9.8845   -0.0204   56.7392 H       1  ZINC000991934963    0.0800
     54 H54        -9.4515    1.9633   58.6428 H       1  ZINC000991934963    0.0700
     55 H55       -11.0803    1.5638   58.0233 H       1  ZINC000991934963    0.0700
     56 H56       -10.1255    1.2459   60.7411 H       1  ZINC000991934963    0.0700
     57 H57       -11.6979    0.6954   60.0823 H       1  ZINC000991934963    0.0700
@<TRIPOS>BOND
     1     1     2    1
     2     1    31    1
     3     1    32    1
     4     1    33    1
     5     2     3    1
     6     3    30   ar
     7     3     4   ar
     8     4     5   ar
     9     5     6   ar
    10     5    34    1
    11     6     7   ar
    12     6    35    1
    13     7     8    1
    14     7    30   ar
    15     8     9    1
    16     8    36    1
    17     8    37    1
    18     9    28    1
    19     9    10    1
    20    10    11    1
    21    10    38    1
    22    10    39    1
    23    11    12    1
    24    11    40    1
    25    11    41    1
    26    12    28    1
    27    12    13    1
    28    12    25    1
    29    13    14   am
    30    13    42    1
    31    14    15    2
    32    14    16    1
    33    16    17    1
    34    16    43    1
    35    16    44    1
    36    17    18    1
    37    17    20    1
    38    17    19    1
    39    19    20    1
    40    19    45    1
    41    19    46    1
    42    20    21    1
    43    20    22    1
    44    22    24    1
    45    22    23    1
    46    22    47    1
    47    23    24    1
    48    23    48    1
    49    23    49    1
    50    24    50    1
    51    24    51    1
    52    25    26    1
    53    25    52    1
    54    25    53    1
    55    26    27    1
    56    26    54    1
    57    26    55    1
    58    27    28    1
    59    27    56    1
    60    27    57    1
    61    28    29    1
@<TRIPOS>SUBSTRUCTURE
     1 ZINC000991934963        1 TEMP              0 ****  ****    0 ROOT


##########                                Name:    ZINC000512699033
##########                DOCK_Rotatable_Bonds:                   9
##########                         Heavy_Atoms:                  30
##########                    Molecular_Weight:              405.54
##########                DOCK_Rotatable_Bonds:                   9
##########                       Formal_Charge:           0.0199988
##########                     HBond_Acceptors:                   5
##########                        HBond_Donors:                   2
##########                         Heavy_Atoms:                  30
##########                          Grid_Score:          -29.325348
##########                     Grid_vdw_energy:          -27.528015
##########                      Grid_es_energy:           -1.797332
##########           Internal_energy_repulsive:           12.494734

@<TRIPOS>MOLECULE
ZINC000512699033
 61 64 1 0 0
SMALL
USER_CHARGES


@<TRIPOS>ATOM
      1 O1        -11.8541    0.6931   58.3598 O.2     1  ZINC000512699033   -0.5100
      2 C2        -10.7826    1.0636   58.7907 C.2     1  ZINC000512699033    0.5200
      3 C3        -10.4842    2.5365   58.9028 C.3     1  ZINC000512699033   -0.1500
      4 C4         -9.1893    2.8532   58.1519 C.3     1  ZINC000512699033    0.1300
      5 N5         -9.3648    2.5549   56.7284 N.am    1  ZINC000512699033   -0.7300
      6 C6         -8.3449    2.0330   56.0186 C.2     1  ZINC000512699033    0.5200
      7 O7         -7.2814    1.8119   56.5578 O.2     1  ZINC000512699033   -0.5300
      8 C8         -8.5260    1.7244   54.5546 C.3     1  ZINC000512699033   -0.1100
      9 C9         -9.5185    2.7155   53.9435 C.3     1  ZINC000512699033   -0.1100
     10 C10        -9.7023    2.4022   52.4572 C.3     1  ZINC000512699033   -0.1200
     11 C11        -8.3559    2.5213   51.7405 C.3     1  ZINC000512699033   -0.1200
     12 C12        -7.3633    1.5302   52.3517 C.3     1  ZINC000512699033   -0.1200
     13 C13        -7.1795    1.8435   53.8379 C.3     1  ZINC000512699033   -0.1000
     14 N14        -9.8610    0.1582   59.1743 N.am    1  ZINC000512699033   -0.6600
     15 C15       -10.1381   -1.2095   59.0701 C.ar    1  ZINC000512699033    0.1700
     16 C16       -10.1665   -1.8207   57.8237 C.ar    1  ZINC000512699033   -0.1400
     17 C17       -10.4399   -3.1710   57.7243 C.ar    1  ZINC000512699033   -0.1000
     18 C18       -10.6856   -3.9138   58.8643 C.ar    1  ZINC000512699033   -0.1400
     19 C19       -10.6581   -3.3080   60.1072 C.ar    1  ZINC000512699033   -0.0900
     20 C20       -10.3798   -1.9596   60.2138 C.ar    1  ZINC000512699033   -0.1200
     21 C21       -10.3499   -1.3003   61.5685 C.3     1  ZINC000512699033    0.0900
     22 N22       -11.5425   -0.4577   61.7294 N.3     1  ZINC000512699033   -0.4700
     23 C23       -12.7791   -1.2557   61.5820 C.3     1  ZINC000512699033    0.0500
     24 C24       -13.7704   -0.5178   62.5109 C.3     1  ZINC000512699033   -0.0900
     25 C25       -12.8549    0.1531   63.5154 C.ar    1  ZINC000512699033   -0.1400
     26 C26       -13.1058    0.7142   64.7496 C.ar    1  ZINC000512699033   -0.0800
     27 C27       -12.0714    1.2678   65.4828 C.ar    1  ZINC000512699033   -0.1400
     28 C28       -10.7850    1.2572   64.9760 C.ar    1  ZINC000512699033   -0.0900
     29 C29       -10.5291    0.6991   63.7407 C.ar    1  ZINC000512699033   -0.1400
     30 C30       -11.5661    0.1422   62.9946 C.ar    1  ZINC000512699033    0.0900
     31 H31       -11.3049    3.1076   58.4689 H       1  ZINC000512699033    0.1100
     32 H32       -10.3700    2.8051   59.9531 H       1  ZINC000512699033    0.1000
     33 H33        -8.9470    3.9088   58.2747 H       1  ZINC000512699033    0.0800
     34 H34        -8.3786    2.2453   58.5533 H       1  ZINC000512699033    0.0800
     35 H35       -10.2151    2.7328   56.2968 H       1  ZINC000512699033    0.4000
     36 H36        -8.9091    0.7102   54.4418 H       1  ZINC000512699033    0.1000
     37 H37       -10.4777    2.6306   54.4540 H       1  ZINC000512699033    0.0700
     38 H38        -9.1353    3.7296   54.0562 H       1  ZINC000512699033    0.0700
     39 H39       -10.0855    1.3880   52.3444 H       1  ZINC000512699033    0.0600
     40 H40       -10.4094    3.1082   52.0217 H       1  ZINC000512699033    0.0700
     41 H41        -8.4868    2.2981   50.6817 H       1  ZINC000512699033    0.0600
     42 H42        -7.9727    3.5355   51.8533 H       1  ZINC000512699033    0.0600
     43 H43        -7.7464    0.5160   52.2389 H       1  ZINC000512699033    0.0600
     44 H44        -6.4040    1.6151   51.8411 H       1  ZINC000512699033    0.0700
     45 H45        -6.7964    2.8578   53.9507 H       1  ZINC000512699033    0.0700
     46 H46        -6.4724    1.1375   54.2734 H       1  ZINC000512699033    0.0700
     47 H47        -9.0056    0.4545   59.5227 H       1  ZINC000512699033    0.4200
     48 H48        -9.9753   -1.2408   56.9328 H       1  ZINC000512699033    0.1500
     49 H49       -10.4622   -3.6469   56.7551 H       1  ZINC000512699033    0.1300
     50 H50       -10.8998   -4.9693   58.7838 H       1  ZINC000512699033    0.1200
     51 H51       -10.8504   -3.8909   60.9958 H       1  ZINC000512699033    0.1200
     52 H52       -10.3382   -2.0655   62.3448 H       1  ZINC000512699033    0.0600
     53 H53        -9.4552   -0.6835   61.6528 H       1  ZINC000512699033    0.0900
     54 H54       -13.1298   -1.2382   60.5502 H       1  ZINC000512699033    0.1000
     55 H55       -12.6211   -2.2797   61.9206 H       1  ZINC000512699033    0.0600
     56 H56       -14.3420    0.2245   61.9536 H       1  ZINC000512699033    0.0900
     57 H57       -14.4348   -1.2256   63.0067 H       1  ZINC000512699033    0.0800
     58 H58       -14.1110    0.7218   65.1443 H       1  ZINC000512699033    0.1200
     59 H59       -12.2685    1.7078   66.4492 H       1  ZINC000512699033    0.1300
     60 H60        -9.9776    1.6880   65.5493 H       1  ZINC000512699033    0.1300
     61 H61        -9.5221    0.6943   63.3502 H       1  ZINC000512699033    0.1200
@<TRIPOS>BOND
     1     1     2    2
     2     2     3    1
     3     2    14   am
     4     3     4    1
     5     3    31    1
     6     3    32    1
     7     4     5    1
     8     4    33    1
     9     4    34    1
    10     5     6   am
    11     5    35    1
    12     6     7    2
    13     6     8    1
    14     8    13    1
    15     8     9    1
    16     8    36    1
    17     9    10    1
    18     9    37    1
    19     9    38    1
    20    10    11    1
    21    10    39    1
    22    10    40    1
    23    11    12    1
    24    11    41    1
    25    11    42    1
    26    12    13    1
    27    12    43    1
    28    12    44    1
    29    13    45    1
    30    13    46    1
    31    14    15    1
    32    14    47    1
    33    15    20   ar
    34    15    16   ar
    35    16    17   ar
    36    16    48    1
    37    17    18   ar
    38    17    49    1
    39    18    19   ar
    40    18    50    1
    41    19    20   ar
    42    19    51    1
    43    20    21    1
    44    21    22    1
    45    21    52    1
    46    21    53    1
    47    22    30    1
    48    22    23    1
    49    23    24    1
    50    23    54    1
    51    23    55    1
    52    24    25    1
    53    24    56    1
    54    24    57    1
    55    25    30   ar
    56    25    26   ar
    57    26    27   ar
    58    26    58    1
    59    27    28   ar
    60    27    59    1
    61    28    29   ar
    62    28    60    1
    63    29    30   ar
    64    29    61    1
@<TRIPOS>SUBSTRUCTURE
     1 ZINC000512699033        1 TEMP              0 ****  ****    0 ROOT


##########                                Name:    ZINC000745364361
##########                DOCK_Rotatable_Bonds:                   8
##########                         Heavy_Atoms:                  29
##########                    Molecular_Weight:             398.434
##########                DOCK_Rotatable_Bonds:                   8
##########                       Formal_Charge:          0.00999923
##########                     HBond_Acceptors:                   7
##########                        HBond_Donors:                   1
##########                         Heavy_Atoms:                  29
##########                          Grid_Score:          -29.318115
##########                     Grid_vdw_energy:          -27.152985
##########                      Grid_es_energy:           -2.165130
##########           Internal_energy_repulsive:           17.649221

@<TRIPOS>MOLECULE
ZINC000745364361
 52 54 1 0 0
SMALL
USER_CHARGES


@<TRIPOS>ATOM
      1 C1        -11.6030   -2.2339   57.4707 C.3     1  ZINC000745364361   -0.1700
      2 C2        -11.8631   -3.3192   58.5173 C.3     1  ZINC000745364361    0.0700
      3 H3        -11.3030   -4.2171   58.2565 H       1  ZINC000745364361    0.1100
      4 O4        -13.2817   -3.6270   58.5533 O.3     1  ZINC000745364361   -0.3200
      5 C5        -13.7730   -4.3553   57.5385 C.2     1  ZINC000745364361    0.4700
      6 O6        -13.0277   -5.0081   56.8470 O.2     1  ZINC000745364361   -0.4900
      7 C7        -15.2544   -4.3588   57.2618 C.3     1  ZINC000745364361   -0.0400
      8 H8        -15.7278   -5.1616   57.8269 H       1  ZINC000745364361    0.1200
      9 C9        -15.8550   -3.0160   57.6827 C.3     1  ZINC000745364361   -0.1400
     10 C10       -15.4898   -4.5747   55.7890 C.ar    1  ZINC000745364361   -0.0500
     11 C11       -15.5615   -3.4906   54.9345 C.ar    1  ZINC000745364361   -0.1000
     12 C12       -15.7774   -3.6872   53.5831 C.ar    1  ZINC000745364361   -0.0900
     13 C13       -15.9217   -4.9679   53.0850 C.ar    1  ZINC000745364361   -0.1500
     14 C14       -15.8496   -6.0549   53.9401 C.ar    1  ZINC000745364361    0.1000
     15 F15       -15.9906   -7.3076   53.4543 F       1  ZINC000745364361   -0.1400
     16 C16       -15.6282   -5.8571   55.2922 C.ar    1  ZINC000745364361   -0.1400
     17 C17       -11.4214   -2.8272   59.8716 C.2     1  ZINC000745364361    0.5200
     18 O18       -11.1005   -3.6215   60.7304 O.2     1  ZINC000745364361   -0.5000
     19 N19       -11.3828   -1.5048   60.1285 N.am    1  ZINC000745364361   -0.6700
     20 C20       -10.9723   -1.0475   61.3872 C.ar    1  ZINC000745364361    0.1200
     21 C21       -11.8914   -0.4589   62.2458 C.ar    1  ZINC000745364361   -0.1100
     22 C22       -11.4868   -0.0082   63.4863 C.ar    1  ZINC000745364361   -0.1400
     23 C23       -10.1607   -0.1438   63.8758 C.ar    1  ZINC000745364361    0.1500
     24 N24        -9.7501    0.3139   65.1343 N.am    1  ZINC000745364361   -0.5600
     25 C25        -9.8187    1.7140   65.5692 C.3     1  ZINC000745364361    0.0900
     26 C26        -9.6883    1.6744   67.1079 C.3     1  ZINC000745364361   -0.1300
     27 C27        -8.9178    0.3516   67.3252 C.3     1  ZINC000745364361   -0.1500
     28 C28        -9.2481   -0.4736   66.1011 C.2     1  ZINC000745364361    0.5200
     29 O29        -9.0778   -1.6706   66.0034 O.2     1  ZINC000745364361   -0.5100
     30 C30        -9.2419   -0.7337   63.0177 C.ar    1  ZINC000745364361   -0.1400
     31 C31        -9.6474   -1.1878   61.7787 C.ar    1  ZINC000745364361   -0.0900
     32 H32       -11.9225   -2.5897   56.4912 H       1  ZINC000745364361    0.0800
     33 H33       -12.1632   -1.3359   57.7316 H       1  ZINC000745364361    0.0800
     34 H34       -10.5382   -2.0029   57.4438 H       1  ZINC000745364361    0.0800
     35 H35       -15.3817   -2.2131   57.1175 H       1  ZINC000745364361    0.0700
     36 H36       -16.9264   -3.0184   57.4825 H       1  ZINC000745364361    0.0800
     37 H37       -15.6848   -2.8598   58.7479 H       1  ZINC000745364361    0.0800
     38 H38       -15.4492   -2.4891   55.3230 H       1  ZINC000745364361    0.1300
     39 H39       -15.8335   -2.8393   52.9165 H       1  ZINC000745364361    0.1400
     40 H40       -16.0910   -5.1212   52.0295 H       1  ZINC000745364361    0.1400
     41 H41       -15.5714   -6.7041   55.9599 H       1  ZINC000745364361    0.1400
     42 H42       -11.6395   -0.8696   59.4418 H       1  ZINC000745364361    0.4100
     43 H43       -12.9227   -0.3534   61.9430 H       1  ZINC000745364361    0.1300
     44 H44       -12.2014    0.4502   64.1538 H       1  ZINC000745364361    0.1600
     45 H45        -8.9972    2.2843   65.1356 H       1  ZINC000745364361    0.0800
     46 H46       -10.7751    2.1515   65.2828 H       1  ZINC000745364361    0.0900
     47 H47        -9.1130    2.5254   67.4726 H       1  ZINC000745364361    0.1000
     48 H48       -10.6693    1.6369   67.5817 H       1  ZINC000745364361    0.0900
     49 H49        -7.8458    0.5399   67.3853 H       1  ZINC000745364361    0.1100
     50 H50        -9.2688   -0.1508   68.2266 H       1  ZINC000745364361    0.1100
     51 H51        -8.2107   -0.8395   63.3206 H       1  ZINC000745364361    0.1300
     52 H52        -8.9327   -1.6465   61.1114 H       1  ZINC000745364361    0.1400
@<TRIPOS>BOND
     1     1     2    1
     2     1    32    1
     3     1    33    1
     4     1    34    1
     5     2     3    1
     6     2     4    1
     7     2    17    1
     8     4     5    1
     9     5     6    2
    10     5     7    1
    11     7     8    1
    12     7     9    1
    13     7    10    1
    14     9    35    1
    15     9    36    1
    16     9    37    1
    17    10    16   ar
    18    10    11   ar
    19    11    12   ar
    20    11    38    1
    21    12    13   ar
    22    12    39    1
    23    13    14   ar
    24    13    40    1
    25    14    15    1
    26    14    16   ar
    27    16    41    1
    28    17    18    2
    29    17    19   am
    30    19    20    1
    31    19    42    1
    32    20    31   ar
    33    20    21   ar
    34    21    22   ar
    35    21    43    1
    36    22    23   ar
    37    22    44    1
    38    23    24    1
    39    23    30   ar
    40    24    28   am
    41    24    25    1
    42    25    26    1
    43    25    45    1
    44    25    46    1
    45    26    27    1
    46    26    47    1
    47    26    48    1
    48    27    28    1
    49    27    49    1
    50    27    50    1
    51    28    29    2
    52    30    31   ar
    53    30    51    1
    54    31    52    1
@<TRIPOS>SUBSTRUCTURE
     1 ZINC000745364361        1 TEMP              0 ****  ****    0 ROOT


##########                                Name:    ZINC001500042809
##########                DOCK_Rotatable_Bonds:                   9
##########                         Heavy_Atoms:                  24
##########                    Molecular_Weight:              346.45
##########                DOCK_Rotatable_Bonds:                   9
##########                       Formal_Charge:           0.0200001
##########                     HBond_Acceptors:                   6
##########                        HBond_Donors:                   2
##########                         Heavy_Atoms:                  24
##########                          Grid_Score:          -29.300522
##########                     Grid_vdw_energy:          -28.943298
##########                      Grid_es_energy:           -0.357223
##########           Internal_energy_repulsive:           18.548889

@<TRIPOS>MOLECULE
ZINC001500042809
 46 47 1 0 0
SMALL
USER_CHARGES


@<TRIPOS>ATOM
      1 C1         -9.2153   -0.4539   65.4341 C.3     1  ZINC001500042809    0.0200
      2 O2        -10.3711   -0.5995   64.6065 O.3     1  ZINC001500042809   -0.3100
      3 C3        -10.1804   -0.5319   63.2646 C.ar    1  ZINC001500042809    0.1600
      4 C4        -10.9285    0.3575   62.5020 C.ar    1  ZINC001500042809   -0.1600
      5 C5        -10.7383    0.4287   61.1400 C.ar    1  ZINC001500042809   -0.0200
      6 C6         -9.7914   -0.3945   60.5248 C.ar    1  ZINC001500042809   -0.1800
      7 C7         -9.5844   -0.3213   59.0652 C.2     1  ZINC001500042809    0.5600
      8 O8         -8.8039   -1.0797   58.5230 O.2     1  ZINC001500042809   -0.5300
      9 N9        -10.2608    0.5862   58.3334 N.am    1  ZINC001500042809   -0.7300
     10 C10       -10.0567    0.6577   56.8843 C.3     1  ZINC001500042809    0.1300
     11 C11       -10.7885   -0.5034   56.2084 C.3     1  ZINC001500042809   -0.1200
     12 H12       -10.2396   -1.4290   56.3816 H       1  ZINC001500042809    0.0900
     13 C13       -12.1967   -0.6285   56.7934 C.3     1  ZINC001500042809   -0.1500
     14 C14       -10.8828   -0.2401   54.7041 C.3     1  ZINC001500042809    0.1300
     15 N15        -9.5790    0.2017   54.2030 N.am    1  ZINC001500042809   -0.7300
     16 C16        -9.2120   -0.0818   52.9377 C.2     1  ZINC001500042809    0.5900
     17 O17        -9.9643   -0.7037   52.2107 O.2     1  ZINC001500042809   -0.5200
     18 C18        -7.9067    0.3587   52.4369 C.2     1  ZINC001500042809   -0.2800
     19 C19        -7.2398    1.4806   52.8417 C.2     1  ZINC001500042809   -0.0100
     20 C20        -7.7738    2.4322   53.8811 C.3     1  ZINC001500042809   -0.1100
     21 C21        -6.0329    1.6546   52.2068 C.2     1  ZINC001500042809   -0.1500
     22 C22        -5.7204    0.7092   51.3127 C.2     1  ZINC001500042809   -0.2200
     23 S23        -6.9448   -0.4758   51.2245 S.3     1  ZINC001500042809    0.1900
     24 C24        -9.0452   -1.2909   61.2941 C.ar    1  ZINC001500042809   -0.0400
     25 C25        -9.2380   -1.3527   62.6562 C.ar    1  ZINC001500042809   -0.2200
     26 H26        -8.4993   -1.2417   65.2000 H       1  ZINC001500042809    0.0600
     27 H27        -8.7581    0.5186   65.2518 H       1  ZINC001500042809    0.0600
     28 H28        -9.5070   -0.5277   66.4818 H       1  ZINC001500042809    0.1000
     29 H29       -11.6601    0.9933   62.9783 H       1  ZINC001500042809    0.1400
     30 H30       -11.3203    1.1195   60.5482 H       1  ZINC001500042809    0.1400
     31 H31       -10.8826    1.1919   58.7660 H       1  ZINC001500042809    0.4000
     32 H32        -8.9911    0.5932   56.6639 H       1  ZINC001500042809    0.0800
     33 H33       -10.4489    1.6026   56.5084 H       1  ZINC001500042809    0.0800
     34 H34       -12.1295   -0.8160   57.8651 H       1  ZINC001500042809    0.0600
     35 H35       -12.7456    0.2972   56.6202 H       1  ZINC001500042809    0.0600
     36 H36       -12.7181   -1.4557   56.3118 H       1  ZINC001500042809    0.0600
     37 H37       -11.1771   -1.1565   54.1926 H       1  ZINC001500042809    0.0800
     38 H38       -11.6258    0.5351   54.5168 H       1  ZINC001500042809    0.0800
     39 H39        -8.9798    0.6985   54.7821 H       1  ZINC001500042809    0.4000
     40 H40        -7.4361    2.1183   54.8688 H       1  ZINC001500042809    0.0800
     41 H41        -7.4083    3.4381   53.6747 H       1  ZINC001500042809    0.0700
     42 H42        -8.8634    2.4283   53.8515 H       1  ZINC001500042809    0.0900
     43 H43        -5.3847    2.4931   52.4141 H       1  ZINC001500042809    0.1500
     44 H44        -4.8124    0.6960   50.7281 H       1  ZINC001500042809    0.1700
     45 H45        -8.3156   -1.9319   60.8216 H       1  ZINC001500042809    0.1300
     46 H46        -8.6593   -2.0430   63.2520 H       1  ZINC001500042809    0.1400
@<TRIPOS>BOND
     1     1     2    1
     2     1    26    1
     3     1    27    1
     4     1    28    1
     5     2     3    1
     6     3    25   ar
     7     3     4   ar
     8     4     5   ar
     9     4    29    1
    10     5     6   ar
    11     5    30    1
    12     6     7    1
    13     6    24   ar
    14     7     8    2
    15     7     9   am
    16     9    10    1
    17     9    31    1
    18    10    11    1
    19    10    32    1
    20    10    33    1
    21    11    12    1
    22    11    13    1
    23    11    14    1
    24    13    34    1
    25    13    35    1
    26    13    36    1
    27    14    15    1
    28    14    37    1
    29    14    38    1
    30    15    16   am
    31    15    39    1
    32    16    17    2
    33    16    18    1
    34    18    23    1
    35    18    19    2
    36    19    20    1
    37    19    21    1
    38    20    40    1
    39    20    41    1
    40    20    42    1
    41    21    22    2
    42    21    43    1
    43    22    23    1
    44    22    44    1
    45    24    25   ar
    46    24    45    1
    47    25    46    1
@<TRIPOS>SUBSTRUCTURE
     1 ZINC001500042809        1 TEMP              0 ****  ****    0 ROOT


##########                                Name:    ZINC000523878927
##########                DOCK_Rotatable_Bonds:                   8
##########                         Heavy_Atoms:                  27
##########                    Molecular_Weight:             376.474
##########                DOCK_Rotatable_Bonds:                   8
##########                       Formal_Charge:          0.00999957
##########                     HBond_Acceptors:                   7
##########                        HBond_Donors:                   3
##########                         Heavy_Atoms:                  27
##########                          Grid_Score:          -29.296272
##########                     Grid_vdw_energy:          -30.420044
##########                      Grid_es_energy:            1.123771
##########           Internal_energy_repulsive:            8.252744

@<TRIPOS>MOLECULE
ZINC000523878927
 56 58 1 0 0
SMALL
USER_CHARGES


@<TRIPOS>ATOM
      1 C1        -11.5915    4.0694   63.6790 C.3     1  ZINC000523878927   -0.1500
      2 C2        -12.0469    3.3459   62.4101 C.3     1  ZINC000523878927   -0.0900
      3 H3        -11.9664    4.0210   61.5582 H       1  ZINC000523878927    0.0700
      4 C4        -13.5016    2.9000   62.5716 C.3     1  ZINC000523878927   -0.1200
      5 C5        -13.6147    1.9523   63.7674 C.3     1  ZINC000523878927   -0.1200
      6 C6        -12.7286    0.7271   63.5329 C.3     1  ZINC000523878927   -0.1100
      7 C7        -11.2741    1.1732   63.3715 C.3     1  ZINC000523878927   -0.1000
      8 H8        -10.9496    1.6885   64.2754 H       1  ZINC000523878927    0.0800
      9 C9        -10.3881   -0.0519   63.1369 C.3     1  ZINC000523878927    0.1400
     10 N10       -10.8201   -0.7410   61.9183 N.am    1  ZINC000523878927   -0.7400
     11 C11        -9.9238   -1.4165   61.1723 C.2     1  ZINC000523878927    0.7200
     12 O12        -8.7563   -1.4531   61.5099 O.2     1  ZINC000523878927   -0.5800
     13 N13       -10.3216   -2.0516   60.0521 N.am    1  ZINC000523878927   -0.6400
     14 C14        -9.4512   -2.8241   59.1471 C.3     1  ZINC000523878927    0.1000
     15 C15       -10.4023   -3.8176   58.4343 C.3     1  ZINC000523878927   -0.1400
     16 C16       -11.6767   -2.9517   58.2509 C.3     1  ZINC000523878927    0.1500
     17 H17       -11.5919   -2.3238   57.3641 H       1  ZINC000523878927    0.1100
     18 N18       -12.8708   -3.7969   58.1731 N.am    1  ZINC000523878927   -0.7300
     19 C19       -13.3336   -4.2005   56.9734 C.2     1  ZINC000523878927    0.7100
     20 O20       -12.7592   -3.8645   55.9557 O.2     1  ZINC000523878927   -0.5700
     21 N21       -14.4331   -4.9768   56.9016 N.am    1  ZINC000523878927   -0.6800
     22 C22       -14.9140   -5.3962   55.6548 C.ar    1  ZINC000523878927    0.1500
     23 C23       -14.8605   -6.7387   55.3049 C.ar    1  ZINC000523878927   -0.1200
     24 C24       -15.3357   -7.1504   54.0752 C.ar    1  ZINC000523878927   -0.1300
     25 C25       -15.8648   -6.2251   53.1913 C.ar    1  ZINC000523878927    0.0800
     26 F26       -16.3288   -6.6297   51.9887 F       1  ZINC000523878927   -0.1400
     27 C27       -15.9196   -4.8859   53.5386 C.ar    1  ZINC000523878927   -0.1300
     28 C28       -15.4502   -4.4709   54.7695 C.ar    1  ZINC000523878927   -0.0900
     29 C29       -11.6968   -2.0940   59.5337 C.3     1  ZINC000523878927    0.1200
     30 C30       -11.1609    2.1209   62.1756 C.3     1  ZINC000523878927   -0.1100
     31 H31       -10.5552    4.3871   63.5640 H       1  ZINC000523878927    0.0500
     32 H32       -12.2227    4.9421   63.8461 H       1  ZINC000523878927    0.0500
     33 H33       -11.6721    3.3943   64.5309 H       1  ZINC000523878927    0.0600
     34 H34       -14.1328    3.7727   62.7387 H       1  ZINC000523878927    0.0600
     35 H35       -13.8260    2.3845   61.6675 H       1  ZINC000523878927    0.0600
     36 H36       -13.2902    2.4676   64.6714 H       1  ZINC000523878927    0.0700
     37 H37       -14.6510    1.6346   63.8824 H       1  ZINC000523878927    0.0600
     38 H38       -12.8093    0.0520   64.3849 H       1  ZINC000523878927    0.0600
     39 H39       -13.0532    0.2118   62.6289 H       1  ZINC000523878927    0.0600
     40 H40        -9.3512    0.2652   63.0267 H       1  ZINC000523878927    0.0700
     41 H41       -10.4725   -0.7295   63.9866 H       1  ZINC000523878927    0.0700
     42 H42       -11.7513   -0.7108   61.6484 H       1  ZINC000523878927    0.3900
     43 H43        -8.9784   -2.1636   58.4202 H       1  ZINC000523878927    0.0800
     44 H44        -8.6957   -3.3647   59.7172 H       1  ZINC000523878927    0.0800
     45 H45        -9.9961   -4.1239   57.4703 H       1  ZINC000523878927    0.1000
     46 H46       -10.6057   -4.6837   59.0639 H       1  ZINC000523878927    0.0800
     47 H47       -13.3282   -4.0660   58.9849 H       1  ZINC000523878927    0.4000
     48 H48       -14.8912   -5.2449   57.7135 H       1  ZINC000523878927    0.4100
     49 H49       -14.4470   -7.4606   55.9938 H       1  ZINC000523878927    0.1400
     50 H50       -15.2942   -8.1946   53.8026 H       1  ZINC000523878927    0.1400
     51 H51       -16.3328   -4.1656   52.8478 H       1  ZINC000523878927    0.1400
     52 H52       -15.4935   -3.4262   55.0402 H       1  ZINC000523878927    0.1500
     53 H53       -12.3622   -2.5443   60.2702 H       1  ZINC000523878927    0.0700
     54 H54       -12.0303   -1.0834   59.2986 H       1  ZINC000523878927    0.0800
     55 H55       -11.4854    1.6054   61.2716 H       1  ZINC000523878927    0.0700
     56 H56       -10.1246    2.4386   62.0605 H       1  ZINC000523878927    0.0700
@<TRIPOS>BOND
     1     1     2    1
     2     1    31    1
     3     1    32    1
     4     1    33    1
     5     2     3    1
     6     2    30    1
     7     2     4    1
     8     4     5    1
     9     4    34    1
    10     4    35    1
    11     5     6    1
    12     5    36    1
    13     5    37    1
    14     6     7    1
    15     6    38    1
    16     6    39    1
    17     7     8    1
    18     7     9    1
    19     7    30    1
    20     9    10    1
    21     9    40    1
    22     9    41    1
    23    10    11   am
    24    10    42    1
    25    11    12    2
    26    11    13   am
    27    13    29    1
    28    13    14    1
    29    14    15    1
    30    14    43    1
    31    14    44    1
    32    15    16    1
    33    15    45    1
    34    15    46    1
    35    16    17    1
    36    16    18    1
    37    16    29    1
    38    18    19   am
    39    18    47    1
    40    19    20    2
    41    19    21   am
    42    21    22    1
    43    21    48    1
    44    22    28   ar
    45    22    23   ar
    46    23    24   ar
    47    23    49    1
    48    24    25   ar
    49    24    50    1
    50    25    26    1
    51    25    27   ar
    52    27    28   ar
    53    27    51    1
    54    28    52    1
    55    29    53    1
    56    29    54    1
    57    30    55    1
    58    30    56    1
@<TRIPOS>SUBSTRUCTURE
     1 ZINC000523878927        1 TEMP              0 ****  ****    0 ROOT


##########                                Name:    ZINC000541252362
##########                DOCK_Rotatable_Bonds:                   5
##########                         Heavy_Atoms:                  27
##########                    Molecular_Weight:             401.254
##########                DOCK_Rotatable_Bonds:                   5
##########                       Formal_Charge:          -0.0199999
##########                     HBond_Acceptors:                   9
##########                        HBond_Donors:                   1
##########                         Heavy_Atoms:                  27
##########                          Grid_Score:          -29.287518
##########                     Grid_vdw_energy:          -27.270660
##########                      Grid_es_energy:           -2.016857
##########           Internal_energy_repulsive:            4.694098

@<TRIPOS>MOLECULE
ZINC000541252362
 41 44 1 0 0
SMALL
USER_CHARGES


@<TRIPOS>ATOM
      1 C1         -7.0167    0.3210   51.4139 C.3     1  ZINC000541252362    0.1000
      2 N2         -7.9893    1.0423   52.2387 N.pl3   1  ZINC000541252362   -0.3800
      3 C3         -8.7682    2.0686   51.8520 C.2     1  ZINC000541252362    0.2600
      4 N4         -9.4979    2.4366   52.8718 N.2     1  ZINC000541252362   -0.5300
      5 C5         -9.2149    1.6686   53.9324 C.2     1  ZINC000541252362    0.2700
      6 C6         -9.8399    1.7818   55.2737 C.ar    1  ZINC000541252362    0.0000
      7 C7        -10.7957    2.7659   55.5182 C.ar    1  ZINC000541252362   -0.1000
      8 C8        -11.3767    2.8699   56.7666 C.ar    1  ZINC000541252362   -0.1000
      9 C9        -11.0132    2.0001   57.7768 C.ar    1  ZINC000541252362   -0.1300
     10 C10       -10.0610    1.0157   57.5419 C.ar    1  ZINC000541252362    0.1400
     11 N11        -9.6952    0.1366   58.5675 N.am    1  ZINC000541252362   -0.6800
     12 C12        -9.9241   -1.1850   58.4359 C.2     1  ZINC000541252362    0.5100
     13 O13       -10.4472   -1.6126   57.4286 O.2     1  ZINC000541252362   -0.4900
     14 C14        -9.5302   -2.1317   59.5403 C.3     1  ZINC000541252362   -0.0600
     15 C15        -9.8086   -1.4900   60.8751 C.2     1  ZINC000541252362    0.0700
     16 C16        -8.8975   -1.2660   61.8475 C.2     1  ZINC000541252362   -0.0700
     17 N17        -9.5555   -0.6693   62.8881 N.pl3   1  ZINC000541252362   -0.3500
     18 C18        -9.1400   -0.2280   64.1121 C.2     1  ZINC000541252362    0.0700
     19 C19       -10.0141    0.3366   64.9726 C.2     1  ZINC000541252362   -0.0500
     20 Cl20       -9.4648    0.8907   66.5234 Cl      1  ZINC000541252362   -0.0200
     21 C21       -11.3667    0.4780   64.6180 C.2     1  ZINC000541252362   -0.0900
     22 C22       -11.7935    0.0426   63.4011 C.2     1  ZINC000541252362    0.0200
     23 Cl23      -13.4603    0.2095   62.9453 Cl      1  ZINC000541252362   -0.0100
     24 C24       -10.8679   -0.5452   62.5141 C.2     1  ZINC000541252362    0.2200
     25 N25       -10.9953   -1.0427   61.2918 N.2     1  ZINC000541252362   -0.4300
     26 C26        -9.4772    0.9013   56.2895 C.ar    1  ZINC000541252362   -0.0800
     27 N27        -8.2960    0.7940   53.5864 N.2     1  ZINC000541252362   -0.3100
     28 H28        -7.5090   -0.5175   50.9214 H       1  ZINC000541252362    0.0800
     29 H29        -6.6077    0.9952   50.6615 H       1  ZINC000541252362    0.0900
     30 H30        -6.2100   -0.0512   52.0454 H       1  ZINC000541252362    0.0900
     31 H31        -8.7871    2.5125   50.8676 H       1  ZINC000541252362    0.2200
     32 H32       -11.0818    3.4480   54.7311 H       1  ZINC000541252362    0.1300
     33 H33       -12.1173    3.6334   56.9540 H       1  ZINC000541252362    0.1300
     34 H34       -11.4700    2.0859   58.7517 H       1  ZINC000541252362    0.1300
     35 H35        -9.2769    0.4785   59.3731 H       1  ZINC000541252362    0.4100
     36 H36       -10.1070   -3.0524   59.4525 H       1  ZINC000541252362    0.1200
     37 H37        -8.4673   -2.3600   59.4614 H       1  ZINC000541252362    0.1200
     38 H38        -7.8466   -1.5125   61.8105 H       1  ZINC000541252362    0.1900
     39 H39        -8.1027   -0.3319   64.3945 H       1  ZINC000541252362    0.1800
     40 H40       -12.0643    0.9296   65.3079 H       1  ZINC000541252362    0.1600
     41 H41        -8.7372    0.1367   56.1046 H       1  ZINC000541252362    0.1500
@<TRIPOS>BOND
     1     1     2    1
     2     1    28    1
     3     1    29    1
     4     1    30    1
     5     2    27    1
     6     2     3    1
     7     3     4    2
     8     3    31    1
     9     4     5    1
    10     5     6    1
    11     5    27    2
    12     6    26   ar
    13     6     7   ar
    14     7     8   ar
    15     7    32    1
    16     8     9   ar
    17     8    33    1
    18     9    10   ar
    19     9    34    1
    20    10    11    1
    21    10    26   ar
    22    11    12   am
    23    11    35    1
    24    12    13    2
    25    12    14    1
    26    14    15    1
    27    14    36    1
    28    14    37    1
    29    15    25    1
    30    15    16    2
    31    16    17    1
    32    16    38    1
    33    17    24    1
    34    17    18    1
    35    18    19    2
    36    18    39    1
    37    19    20    1
    38    19    21    1
    39    21    22    2
    40    21    40    1
    41    22    23    1
    42    22    24    1
    43    24    25    2
    44    26    41    1
@<TRIPOS>SUBSTRUCTURE
     1 ZINC000541252362        1 TEMP              0 ****  ****    0 ROOT


##########                                Name:    ZINC000443394081
##########                DOCK_Rotatable_Bonds:                   8
##########                         Heavy_Atoms:                  27
##########                    Molecular_Weight:             389.878
##########                DOCK_Rotatable_Bonds:                   8
##########                       Formal_Charge:          -0.0300003
##########                     HBond_Acceptors:                   6
##########                        HBond_Donors:                   1
##########                         Heavy_Atoms:                  27
##########                          Grid_Score:          -29.285532
##########                     Grid_vdw_energy:          -28.471748
##########                      Grid_es_energy:           -0.813784
##########           Internal_energy_repulsive:           32.934891

@<TRIPOS>MOLECULE
ZINC000443394081
 51 53 1 0 0
SMALL
USER_CHARGES


@<TRIPOS>ATOM
      1 C1        -16.6167   -2.0588   59.4334 C.3     1  ZINC000443394081    0.0200
      2 O2        -15.4387   -2.7836   59.7926 O.3     1  ZINC000443394081   -0.3000
      3 C3        -14.6708   -3.2572   58.7750 C.ar    1  ZINC000443394081    0.1000
      4 C4        -15.2243   -4.0886   57.8213 C.ar    1  ZINC000443394081   -0.1200
      5 C5        -14.4323   -4.5731   56.7765 C.ar    1  ZINC000443394081   -0.1300
      6 C6        -15.0190   -5.4616   55.7542 C.2     1  ZINC000443394081    0.5700
      7 O7        -14.7160   -6.6387   55.7256 O.2     1  ZINC000443394081   -0.4900
      8 N8        -15.8907   -4.9681   54.8526 N.am    1  ZINC000443394081   -0.6100
      9 C9        -16.3440   -3.5675   54.7731 C.3     1  ZINC000443394081    0.0900
     10 C10       -16.7875   -3.3771   53.3011 C.3     1  ZINC000443394081   -0.1300
     11 C11       -17.4308   -4.7541   52.9891 C.3     1  ZINC000443394081   -0.1000
     12 H12       -18.4608   -4.7879   53.3442 H       1  ZINC000443394081    0.0900
     13 C13       -17.3670   -5.0541   51.4902 C.3     1  ZINC000443394081   -0.1500
     14 C14       -16.5423   -5.7359   53.7813 C.3     1  ZINC000443394081    0.1400
     15 H15       -17.1572   -6.5231   54.2177 H       1  ZINC000443394081    0.0800
     16 C16       -15.4913   -6.3504   52.8546 C.3     1  ZINC000443394081    0.0600
     17 O17       -16.0967   -7.3709   52.0583 O.3     1  ZINC000443394081   -0.5400
     18 C18       -13.0846   -4.2142   56.7015 C.ar    1  ZINC000443394081   -0.1000
     19 C19       -12.5381   -3.3845   57.6569 C.ar    1  ZINC000443394081   -0.1800
     20 C20       -13.3258   -2.8987   58.6913 C.ar    1  ZINC000443394081    0.1300
     21 O21       -12.7828   -2.0815   59.6301 O.3     1  ZINC000443394081   -0.3000
     22 C22       -12.2584   -2.7024   60.8055 C.3     1  ZINC000443394081    0.1000
     23 C23       -11.3940   -1.7180   61.5505 C.ar    1  ZINC000443394081   -0.0800
     24 C24       -10.0173   -1.8206   61.4868 C.ar    1  ZINC000443394081   -0.0800
     25 C25        -9.2241   -0.9177   62.1703 C.ar    1  ZINC000443394081   -0.1100
     26 C26        -9.8074    0.0879   62.9179 C.ar    1  ZINC000443394081   -0.1000
     27 C27       -11.1844    0.1915   62.9825 C.ar    1  ZINC000443394081   -0.1100
     28 C28       -11.9785   -0.7078   62.2939 C.ar    1  ZINC000443394081   -0.0300
     29 Cl29      -13.7077   -0.5783   62.3744 Cl      1  ZINC000443394081   -0.0700
     30 H30       -17.1358   -1.7385   60.3367 H       1  ZINC000443394081    0.1000
     31 H31       -16.3398   -1.1846   58.8442 H       1  ZINC000443394081    0.0600
     32 H32       -17.2729   -2.7003   58.8452 H       1  ZINC000443394081    0.0600
     33 H33       -16.2667   -4.3640   57.8828 H       1  ZINC000443394081    0.1500
     34 H34       -17.1845   -3.4020   55.4470 H       1  ZINC000443394081    0.0700
     35 H35       -15.5250   -2.8896   55.0133 H       1  ZINC000443394081    0.0800
     36 H36       -17.5203   -2.5749   53.2146 H       1  ZINC000443394081    0.0900
     37 H37       -15.9292   -3.1916   52.6554 H       1  ZINC000443394081    0.0800
     38 H38       -16.3278   -5.0450   51.1617 H       1  ZINC000443394081    0.0600
     39 H39       -17.8004   -6.0356   51.2973 H       1  ZINC000443394081    0.0600
     40 H40       -17.9275   -4.2958   50.9436 H       1  ZINC000443394081    0.0600
     41 H41       -15.0832   -5.5765   52.2045 H       1  ZINC000443394081    0.0600
     42 H42       -14.6890   -6.7836   53.4519 H       1  ZINC000443394081    0.0400
     43 H43       -16.8233   -7.0571   51.5027 H       1  ZINC000443394081    0.3700
     44 H44       -12.4705   -4.5873   55.8952 H       1  ZINC000443394081    0.1400
     45 H45       -11.4958   -3.1082   57.5980 H       1  ZINC000443394081    0.1400
     46 H46       -13.0810   -3.0208   61.4460 H       1  ZINC000443394081    0.0800
     47 H47       -11.6612   -3.5692   60.5230 H       1  ZINC000443394081    0.0800
     48 H48        -9.5610   -2.6066   60.9032 H       1  ZINC000443394081    0.1400
     49 H49        -8.1483   -0.9983   62.1201 H       1  ZINC000443394081    0.1300
     50 H50        -9.1874    0.7925   63.4522 H       1  ZINC000443394081    0.1300
     51 H51       -11.6401    0.9773   63.5668 H       1  ZINC000443394081    0.1400
@<TRIPOS>BOND
     1     1     2    1
     2     1    30    1
     3     1    31    1
     4     1    32    1
     5     2     3    1
     6     3    20   ar
     7     3     4   ar
     8     4     5   ar
     9     4    33    1
    10     5     6    1
    11     5    18   ar
    12     6     7    2
    13     6     8   am
    14     8    14    1
    15     8     9    1
    16     9    10    1
    17     9    34    1
    18     9    35    1
    19    10    11    1
    20    10    36    1
    21    10    37    1
    22    11    12    1
    23    11    13    1
    24    11    14    1
    25    13    38    1
    26    13    39    1
    27    13    40    1
    28    14    15    1
    29    14    16    1
    30    16    17    1
    31    16    41    1
    32    16    42    1
    33    17    43    1
    34    18    19   ar
    35    18    44    1
    36    19    20   ar
    37    19    45    1
    38    20    21    1
    39    21    22    1
    40    22    23    1
    41    22    46    1
    42    22    47    1
    43    23    28   ar
    44    23    24   ar
    45    24    25   ar
    46    24    48    1
    47    25    26   ar
    48    25    49    1
    49    26    27   ar
    50    26    50    1
    51    27    28   ar
    52    27    51    1
    53    28    29    1
@<TRIPOS>SUBSTRUCTURE
     1 ZINC000443394081        1 TEMP              0 ****  ****    0 ROOT


##########                                Name:    ZINC000281257088
##########                DOCK_Rotatable_Bonds:                   8
##########                         Heavy_Atoms:                  27
##########                    Molecular_Weight:             395.541
##########                DOCK_Rotatable_Bonds:                   8
##########                       Formal_Charge:          -0.0200005
##########                     HBond_Acceptors:                   7
##########                        HBond_Donors:                   1
##########                         Heavy_Atoms:                  27
##########                          Grid_Score:          -29.281311
##########                     Grid_vdw_energy:          -25.740973
##########                      Grid_es_energy:           -3.540339
##########           Internal_energy_repulsive:           26.358753

@<TRIPOS>MOLECULE
ZINC000281257088
 57 58 1 0 0
SMALL
USER_CHARGES


@<TRIPOS>ATOM
      1 C1        -14.0384   -0.1931   62.6936 C.3     1  ZINC000281257088   -0.0700
      2 C2        -12.5575   -0.4697   62.7295 C.2     1  ZINC000281257088    0.1000
      3 N3        -11.7666   -0.2817   63.7547 N.2     1  ZINC000281257088   -0.3000
      4 N4        -10.4700   -0.6592   63.3822 N.pl3   1  ZINC000281257088   -0.3700
      5 C5         -9.2790   -0.6073   64.2339 C.3     1  ZINC000281257088    0.1500
      6 C6         -9.5283    0.3495   65.4015 C.3     1  ZINC000281257088   -0.6400
      7 S7         -8.2916    0.0584   66.6963 S.o2    1  ZINC000281257088    2.4300
      8 C8         -6.8385    0.9122   66.0254 C.3     1  ZINC000281257088   -0.6500
      9 O9         -8.7063    0.7305   67.8777 O.2     1  ZINC000281257088   -0.9300
     10 O10        -8.0131   -1.3340   66.7516 O.2     1  ZINC000281257088   -0.9300
     11 C11       -10.5118   -1.0791   62.1004 C.2     1  ZINC000281257088    0.0900
     12 C12        -9.3429   -1.5779   61.2904 C.3     1  ZINC000281257088   -0.1000
     13 C13       -11.7922   -0.9775   61.6746 C.2     1  ZINC000281257088   -0.2300
     14 C14       -12.3017   -1.3390   60.3033 C.3     1  ZINC000281257088    0.1400
     15 N15       -12.2534   -0.1551   59.4350 N.3     1  ZINC000281257088   -0.6700
     16 C16       -12.2939   -0.5395   58.0179 C.3     1  ZINC000281257088    0.1400
     17 H17       -12.1915   -1.6214   57.9317 H       1  ZINC000281257088    0.0500
     18 C18       -11.1629    0.1321   57.2826 C.ar    1  ZINC000281257088   -0.0800
     19 C19       -10.5764    1.2686   57.8074 C.ar    1  ZINC000281257088   -0.0600
     20 C20        -9.5390    1.8855   57.1340 C.ar    1  ZINC000281257088   -0.1600
     21 C21        -9.0869    1.3644   55.9336 C.ar    1  ZINC000281257088    0.1000
     22 F22        -8.0726    1.9662   55.2747 F       1  ZINC000281257088   -0.1400
     23 C23        -9.6747    0.2258   55.4092 C.ar    1  ZINC000281257088   -0.1600
     24 C24       -10.7087   -0.3920   56.0867 C.ar    1  ZINC000281257088   -0.0900
     25 C25       -13.6281   -0.1034   57.4090 C.3     1  ZINC000281257088   -0.0600
     26 C26       -13.4690    1.2760   56.7667 C.3     1  ZINC000281257088   -0.1400
     27 C27       -14.0580   -1.1151   56.3447 C.3     1  ZINC000281257088   -0.1400
     28 C28       -14.6916   -0.0351   58.5069 C.3     1  ZINC000281257088   -0.1500
     29 H29       -14.5820   -1.0833   63.0100 H       1  ZINC000281257088    0.0800
     30 H30       -14.2703    0.6327   63.3663 H       1  ZINC000281257088    0.0700
     31 H31       -14.3341    0.0715   61.6783 H       1  ZINC000281257088    0.0800
     32 H32        -9.0649   -1.6038   64.6201 H       1  ZINC000281257088    0.1100
     33 H33        -8.4296   -0.2538   63.6494 H       1  ZINC000281257088    0.1100
     34 H34        -9.4517    1.3786   65.0507 H       1  ZINC000281257088    0.1400
     35 H35       -10.5256    0.1769   65.8061 H       1  ZINC000281257088    0.1400
     36 H36        -7.0703    1.9679   65.8848 H       1  ZINC000281257088    0.1300
     37 H37        -6.0053    0.8125   66.7210 H       1  ZINC000281257088    0.1300
     38 H38        -6.5670    0.4691   65.0672 H       1  ZINC000281257088    0.1300
     39 H39        -9.2479   -2.6565   61.4155 H       1  ZINC000281257088    0.0800
     40 H40        -9.5057   -1.3472   60.2376 H       1  ZINC000281257088    0.0900
     41 H41        -8.4297   -1.0906   61.6321 H       1  ZINC000281257088    0.0700
     42 H42       -11.6777   -2.1260   59.8796 H       1  ZINC000281257088    0.0800
     43 H43       -13.3301   -1.6922   60.3792 H       1  ZINC000281257088    0.0300
     44 H44       -12.9995    0.4868   59.6570 H       1  ZINC000281257088    0.3400
     45 H45       -10.9292    1.6749   58.7438 H       1  ZINC000281257088    0.1400
     46 H46        -9.0815    2.7738   57.5440 H       1  ZINC000281257088    0.1300
     47 H47        -9.3231   -0.1813   54.4727 H       1  ZINC000281257088    0.1300
     48 H48       -11.1672   -1.2804   55.6780 H       1  ZINC000281257088    0.1300
     49 H49       -12.7114    1.2273   55.9845 H       1  ZINC000281257088    0.0600
     50 H50       -14.4194    1.5867   56.3329 H       1  ZINC000281257088    0.0500
     51 H51       -13.1627    1.9967   57.5249 H       1  ZINC000281257088    0.0600
     52 H52       -14.1714   -2.0979   56.8024 H       1  ZINC000281257088    0.0500
     53 H53       -15.0085   -0.8045   55.9110 H       1  ZINC000281257088    0.0600
     54 H54       -13.3003   -1.1637   55.5626 H       1  ZINC000281257088    0.0600
     55 H55       -14.4239    0.7406   59.2242 H       1  ZINC000281257088    0.0500
     56 H56       -15.6586    0.1995   58.0619 H       1  ZINC000281257088    0.0600
     57 H57       -14.7499   -0.9969   59.0166 H       1  ZINC000281257088    0.0600
@<TRIPOS>BOND
     1     1     2    1
     2     1    29    1
     3     1    30    1
     4     1    31    1
     5     2    13    1
     6     2     3    2
     7     3     4    1
     8     4     5    1
     9     4    11    1
    10     5     6    1
    11     5    32    1
    12     5    33    1
    13     6     7    1
    14     6    34    1
    15     6    35    1
    16     7     8    1
    17     7     9    2
    18     7    10    2
    19     8    36    1
    20     8    37    1
    21     8    38    1
    22    11    12    1
    23    11    13    2
    24    12    39    1
    25    12    40    1
    26    12    41    1
    27    13    14    1
    28    14    15    1
    29    14    42    1
    30    14    43    1
    31    15    16    1
    32    15    44    1
    33    16    17    1
    34    16    18    1
    35    16    25    1
    36    18    24   ar
    37    18    19   ar
    38    19    20   ar
    39    19    45    1
    40    20    21   ar
    41    20    46    1
    42    21    22    1
    43    21    23   ar
    44    23    24   ar
    45    23    47    1
    46    24    48    1
    47    25    26    1
    48    25    27    1
    49    25    28    1
    50    26    49    1
    51    26    50    1
    52    26    51    1
    53    27    52    1
    54    27    53    1
    55    27    54    1
    56    28    55    1
    57    28    56    1
    58    28    57    1
@<TRIPOS>SUBSTRUCTURE
     1 ZINC000281257088        1 TEMP              0 ****  ****    0 ROOT


##########                                Name:    ZINC001386869844
##########                DOCK_Rotatable_Bonds:                   9
##########                         Heavy_Atoms:                  25
##########                    Molecular_Weight:             345.485
##########                DOCK_Rotatable_Bonds:                   9
##########                       Formal_Charge:          -0.0300003
##########                     HBond_Acceptors:                   5
##########                        HBond_Donors:                   2
##########                         Heavy_Atoms:                  25
##########                          Grid_Score:          -29.274096
##########                     Grid_vdw_energy:          -28.476694
##########                      Grid_es_energy:           -0.797401
##########           Internal_energy_repulsive:           32.331234

@<TRIPOS>MOLECULE
ZINC001386869844
 56 58 1 0 0
SMALL
USER_CHARGES


@<TRIPOS>ATOM
      1 C1          1.0075    3.0874   50.8541 C.3     1  ZINC001386869844    0.0600
      2 N2         -0.3164    3.6235   51.1801 N.am    1  ZINC001386869844   -0.6200
      3 C3         -0.5284    4.3332   52.4439 C.3     1  ZINC001386869844    0.1100
      4 C4          0.4118    3.7679   53.5103 C.3     1  ZINC001386869844    0.1000
      5 N5         -0.0242    4.2186   54.8343 N.am    1  ZINC001386869844   -0.7300
      6 C6          0.8827    4.4151   55.8118 C.2     1  ZINC001386869844    0.5200
      7 O7          2.0592    4.2139   55.5967 O.2     1  ZINC001386869844   -0.5300
      8 C8          0.4341    4.8788   57.1737 C.3     1  ZINC001386869844   -0.1300
      9 C9          0.0792    3.6646   58.0343 C.3     1  ZINC001386869844   -0.0100
     10 C10         1.2584    2.6900   58.0524 C.3     1  ZINC001386869844   -0.1500
     11 C11        -0.2257    4.1229   59.4619 C.3     1  ZINC001386869844   -0.1600
     12 C12        -1.1503    2.9668   57.4492 C.3     1  ZINC001386869844   -0.1500
     13 C13        -2.4315    2.9739   58.2856 C.3     1  ZINC001386869844   -0.1900
     14 C14        -1.6249    1.6821   58.1314 C.3     1  ZINC001386869844   -0.1800
     15 C15        -1.3393    3.4635   50.3172 C.2     1  ZINC001386869844    0.5900
     16 O16        -2.4390    3.9086   50.5879 O.2     1  ZINC001386869844   -0.5200
     17 C17        -1.1270    2.7527   49.0518 C.2     1  ZINC001386869844   -0.0600
     18 C18        -0.9180    3.3321   47.8162 C.2     1  ZINC001386869844   -0.0900
     19 C19        -0.7652    2.2939   46.9009 C.2     1  ZINC001386869844   -0.1700
     20 C20        -0.8813    1.1185   47.5743 C.2     1  ZINC001386869844    0.0500
     21 C21        -0.7774   -0.2391   46.9210 C.3     1  ZINC001386869844   -0.0600
     22 C22        -0.9478   -0.0624   45.4075 C.3     1  ZINC001386869844   -0.1100
     23 C23        -0.0111    1.0430   44.9128 C.3     1  ZINC001386869844   -0.1200
     24 C24        -0.5125    2.4015   45.4178 C.3     1  ZINC001386869844   -0.0500
     25 N25        -1.0938    1.3857   48.8817 N.pl3   1  ZINC001386869844   -0.5400
     26 H26         1.0509    2.0338   51.1298 H       1  ZINC001386869844    0.0600
     27 H27         1.1880    3.1908   49.7841 H       1  ZINC001386869844    0.0800
     28 H28         1.7687    3.6390   51.4059 H       1  ZINC001386869844    0.0900
     29 H29        -1.5619    4.2030   52.7648 H       1  ZINC001386869844    0.1000
     30 H30        -0.3226    5.3944   52.3037 H       1  ZINC001386869844    0.0900
     31 H31         1.4265    4.1191   53.3230 H       1  ZINC001386869844    0.0700
     32 H32         0.3913    2.6788   53.4723 H       1  ZINC001386869844    0.0700
     33 H33        -0.9657    4.3755   55.0075 H       1  ZINC001386869844    0.4000
     34 H34         1.2387    5.4390   57.6500 H       1  ZINC001386869844    0.0900
     35 H35        -0.4420    5.5187   57.0693 H       1  ZINC001386869844    0.0900
     36 H36         2.1343    3.1871   58.4693 H       1  ZINC001386869844    0.0800
     37 H37         1.0054    1.8250   58.6656 H       1  ZINC001386869844    0.0500
     38 H38         1.4756    2.3634   57.0354 H       1  ZINC001386869844    0.0500
     39 H39        -1.0658    4.8172   59.4490 H       1  ZINC001386869844    0.0500
     40 H40        -0.4787    3.2579   60.0750 H       1  ZINC001386869844    0.0500
     41 H41         0.6501    4.6201   59.8787 H       1  ZINC001386869844    0.0800
     42 H42        -1.2560    3.0301   56.3663 H       1  ZINC001386869844    0.1000
     43 H43        -2.3985    3.4756   59.2526 H       1  ZINC001386869844    0.1000
     44 H44        -3.3800    3.0416   57.7527 H       1  ZINC001386869844    0.0900
     45 H45        -2.0431    0.9004   57.4971 H       1  ZINC001386869844    0.0900
     46 H46        -1.0612    1.3340   58.9969 H       1  ZINC001386869844    0.0900
     47 H47        -0.8806    4.3897   47.6005 H       1  ZINC001386869844    0.1500
     48 H48         0.1995   -0.6742   47.1320 H       1  ZINC001386869844    0.0800
     49 H49        -1.5613   -0.8921   47.3048 H       1  ZINC001386869844    0.0800
     50 H50        -0.7045   -0.9974   44.9030 H       1  ZINC001386869844    0.0700
     51 H51        -1.9799    0.2108   45.1877 H       1  ZINC001386869844    0.0700
     52 H52         0.9950    0.8633   45.2916 H       1  ZINC001386869844    0.0600
     53 H53         0.0058    1.0441   43.8229 H       1  ZINC001386869844    0.0700
     54 H54        -1.4380    2.6646   44.9058 H       1  ZINC001386869844    0.0700
     55 H55         0.2422    3.1649   45.2283 H       1  ZINC001386869844    0.0700
     56 H56        -1.2064    0.7253   49.5831 H       1  ZINC001386869844    0.4200
@<TRIPOS>BOND
     1     1     2    1
     2     1    26    1
     3     1    27    1
     4     1    28    1
     5     2     3    1
     6     2    15   am
     7     3     4    1
     8     3    29    1
     9     3    30    1
    10     4     5    1
    11     4    31    1
    12     4    32    1
    13     5     6   am
    14     5    33    1
    15     6     7    2
    16     6     8    1
    17     8     9    1
    18     8    34    1
    19     8    35    1
    20     9    10    1
    21     9    11    1
    22     9    12    1
    23    10    36    1
    24    10    37    1
    25    10    38    1
    26    11    39    1
    27    11    40    1
    28    11    41    1
    29    12    14    1
    30    12    13    1
    31    12    42    1
    32    13    14    1
    33    13    43    1
    34    13    44    1
    35    14    45    1
    36    14    46    1
    37    15    16    2
    38    15    17    1
    39    17    25    1
    40    17    18    2
    41    18    19    1
    42    18    47    1
    43    19    24    1
    44    19    20    2
    45    20    21    1
    46    20    25    1
    47    21    22    1
    48    21    48    1
    49    21    49    1
    50    22    23    1
    51    22    50    1
    52    22    51    1
    53    23    24    1
    54    23    52    1
    55    23    53    1
    56    24    54    1
    57    24    55    1
    58    25    56    1
@<TRIPOS>SUBSTRUCTURE
     1 ZINC001386869844        1 TEMP              0 ****  ****    0 ROOT


##########                                Name:    ZINC000373715094
##########                DOCK_Rotatable_Bonds:                   6
##########                         Heavy_Atoms:                  27
##########                    Molecular_Weight:             362.431
##########                DOCK_Rotatable_Bonds:                   6
##########                       Formal_Charge:           0.0299999
##########                     HBond_Acceptors:                   6
##########                        HBond_Donors:                   2
##########                         Heavy_Atoms:                  27
##########                          Grid_Score:          -29.264973
##########                     Grid_vdw_energy:          -27.571999
##########                      Grid_es_energy:           -1.692973
##########           Internal_energy_repulsive:           15.739039

@<TRIPOS>MOLECULE
ZINC000373715094
 49 52 1 0 0
SMALL
USER_CHARGES


@<TRIPOS>ATOM
      1 C1        -15.2666   -2.1622   58.4657 C.3     1  ZINC000373715094    0.0900
      2 N2        -14.2456   -2.2290   57.4171 N.am    1  ZINC000373715094   -0.6100
      3 C3        -13.8195   -1.1717   56.7049 C.2     1  ZINC000373715094    0.5200
      4 O4        -14.2279   -0.0370   56.8341 O.2     1  ZINC000373715094   -0.5200
      5 C5        -12.7562   -1.6029   55.7190 C.3     1  ZINC000373715094   -0.1600
      6 C6        -12.3084   -2.9926   56.2279 C.3     1  ZINC000373715094   -0.1000
      7 H7        -12.0964   -3.6632   55.3952 H       1  ZINC000373715094    0.1100
      8 C8        -11.0956   -2.8725   57.1529 C.3     1  ZINC000373715094    0.1300
      9 N9        -11.4798   -2.1554   58.3712 N.am    1  ZINC000373715094   -0.7300
     10 C10       -11.5430   -2.8106   59.5473 C.2     1  ZINC000373715094    0.5200
     11 O11       -11.2806   -3.9937   59.5972 O.2     1  ZINC000373715094   -0.5200
     12 C12       -11.9400   -2.0732   60.8002 C.3     1  ZINC000373715094   -0.0600
     13 C13       -10.7017   -1.6218   61.5309 C.2     1  ZINC000373715094    0.1200
     14 N14        -9.4820   -2.0059   61.2842 N.2     1  ZINC000373715094   -0.2300
     15 N15        -8.5933   -1.3781   62.1630 N.pl3   1  ZINC000373715094   -0.5100
     16 C16        -9.2992   -0.5576   63.0037 C.ar    1  ZINC000373715094    0.1300
     17 C17        -8.9422    0.2892   64.0497 C.ar    1  ZINC000373715094   -0.1400
     18 C18        -9.9063    0.9947   64.7129 C.ar    1  ZINC000373715094   -0.0700
     19 C19       -11.2443    0.8786   64.3576 C.ar    1  ZINC000373715094   -0.1600
     20 C20       -11.6237    0.0562   63.3363 C.ar    1  ZINC000373715094   -0.0400
     21 C21       -10.6546   -0.6714   62.6374 C.ar    1  ZINC000373715094   -0.1600
     22 C22       -13.5522   -3.4580   57.0137 C.3     1  ZINC000373715094    0.1800
     23 H23       -13.2517   -4.0320   57.8902 H       1  ZINC000373715094    0.1000
     24 C24       -14.4473   -4.2877   56.1296 C.ar    1  ZINC000373715094   -0.1000
     25 C25       -14.3480   -5.6663   56.1445 C.ar    1  ZINC000373715094   -0.1000
     26 C26       -15.1691   -6.4272   55.3335 C.ar    1  ZINC000373715094   -0.1200
     27 C27       -16.0898   -5.8094   54.5079 C.ar    1  ZINC000373715094   -0.1100
     28 C28       -16.1898   -4.4308   54.4937 C.ar    1  ZINC000373715094   -0.1200
     29 C29       -15.3717   -3.6701   55.3078 C.ar    1  ZINC000373715094   -0.1100
     30 H30       -14.7894   -1.9631   59.4252 H       1  ZINC000373715094    0.0600
     31 H31       -15.9705   -1.3619   58.2369 H       1  ZINC000373715094    0.0800
     32 H32       -15.7996   -3.1117   58.5149 H       1  ZINC000373715094    0.0700
     33 H33       -13.1751   -1.6807   54.7158 H       1  ZINC000373715094    0.1100
     34 H34       -11.9193   -0.9046   55.7308 H       1  ZINC000373715094    0.1100
     35 H35       -10.7385   -3.8685   57.4149 H       1  ZINC000373715094    0.0700
     36 H36       -10.3030   -2.3247   56.6434 H       1  ZINC000373715094    0.0800
     37 H37       -11.6885   -1.2089   58.3314 H       1  ZINC000373715094    0.4000
     38 H38       -12.5424   -1.2044   60.5350 H       1  ZINC000373715094    0.1200
     39 H39       -12.5202   -2.7352   61.4430 H       1  ZINC000373715094    0.1200
     40 H40        -7.6315   -1.5036   62.1758 H       1  ZINC000373715094    0.4400
     41 H41        -7.9056    0.3880   64.3364 H       1  ZINC000373715094    0.1300
     42 H42        -9.6246    1.6503   65.5236 H       1  ZINC000373715094    0.1300
     43 H43       -11.9913    1.4441   64.8947 H       1  ZINC000373715094    0.1300
     44 H44       -12.6660   -0.0285   63.0661 H       1  ZINC000373715094    0.1300
     45 H45       -13.6287   -6.1489   56.7894 H       1  ZINC000373715094    0.1200
     46 H46       -15.0910   -7.5044   55.3446 H       1  ZINC000373715094    0.1200
     47 H47       -16.7308   -6.4040   53.8737 H       1  ZINC000373715094    0.1200
     48 H48       -16.9088   -3.9483   53.8484 H       1  ZINC000373715094    0.1300
     49 H49       -15.4497   -2.5930   55.2967 H       1  ZINC000373715094    0.1300
@<TRIPOS>BOND
     1     1     2    1
     2     1    30    1
     3     1    31    1
     4     1    32    1
     5     2    22    1
     6     2     3   am
     7     3     4    2
     8     3     5    1
     9     5     6    1
    10     5    33    1
    11     5    34    1
    12     6     7    1
    13     6     8    1
    14     6    22    1
    15     8     9    1
    16     8    35    1
    17     8    36    1
    18     9    10   am
    19     9    37    1
    20    10    11    2
    21    10    12    1
    22    12    13    1
    23    12    38    1
    24    12    39    1
    25    13    21    1
    26    13    14    2
    27    14    15    1
    28    15    16    1
    29    15    40    1
    30    16    21   ar
    31    16    17   ar
    32    17    18   ar
    33    17    41    1
    34    18    19   ar
    35    18    42    1
    36    19    20   ar
    37    19    43    1
    38    20    21   ar
    39    20    44    1
    40    22    23    1
    41    22    24    1
    42    24    29   ar
    43    24    25   ar
    44    25    26   ar
    45    25    45    1
    46    26    27   ar
    47    26    46    1
    48    27    28   ar
    49    27    47    1
    50    28    29   ar
    51    28    48    1
    52    29    49    1
@<TRIPOS>SUBSTRUCTURE
     1 ZINC000373715094        1 TEMP              0 ****  ****    0 ROOT


##########                                Name:    ZINC000066361645
##########                DOCK_Rotatable_Bonds:                   8
##########                         Heavy_Atoms:                  27
##########                    Molecular_Weight:             392.519
##########                DOCK_Rotatable_Bonds:                   8
##########                       Formal_Charge:           0.0100004
##########                     HBond_Acceptors:                   7
##########                        HBond_Donors:                   2
##########                         Heavy_Atoms:                  27
##########                          Grid_Score:          -29.256592
##########                     Grid_vdw_energy:          -28.327736
##########                      Grid_es_energy:           -0.928856
##########           Internal_energy_repulsive:            8.287156

@<TRIPOS>MOLECULE
ZINC000066361645
 55 57 1 0 0
SMALL
USER_CHARGES


@<TRIPOS>ATOM
      1 C1         -9.2589   -3.3843   58.7898 C.3     1  ZINC000066361645   -0.1400
      2 S2        -10.7167   -2.7223   59.6425 S.3     1  ZINC000066361645   -0.1100
      3 C3        -12.0399   -3.1631   58.5657 C.ar    1  ZINC000066361645   -0.1200
      4 C4        -12.2687   -4.4953   58.2557 C.ar    1  ZINC000066361645   -0.1100
      5 C5        -13.3108   -4.8436   57.4086 C.ar    1  ZINC000066361645    0.0500
      6 C6        -14.1280   -3.8568   56.8708 C.ar    1  ZINC000066361645    0.0700
      7 C7        -13.8997   -2.5234   57.1783 C.ar    1  ZINC000066361645   -0.1100
      8 C8        -12.8623   -2.1735   58.0283 C.ar    1  ZINC000066361645    0.1800
      9 N9        -12.6330   -0.8245   58.3386 N.am    1  ZINC000066361645   -0.6600
     10 C10       -12.4147    0.0664   57.3512 C.2     1  ZINC000066361645    0.5100
     11 O11       -12.4165   -0.2979   56.1941 O.2     1  ZINC000066361645   -0.5000
     12 C12       -12.1684    1.5153   57.6845 C.3     1  ZINC000066361645   -0.1500
     13 C13       -10.6726    1.8171   57.5730 C.3     1  ZINC000066361645    0.1600
     14 H14       -10.1024    0.9870   57.9897 H       1  ZINC000066361645    0.1000
     15 C15       -10.3514    3.0966   58.3481 C.3     1  ZINC000066361645   -0.1600
     16 N16       -10.3145    1.9971   56.1639 N.am    1  ZINC000066361645   -0.7200
     17 C17        -9.0729    1.6891   55.7395 C.2     1  ZINC000066361645    0.5300
     18 O18        -8.2525    1.2619   56.5240 O.2     1  ZINC000066361645   -0.5400
     19 C19        -8.7039    1.8759   54.2904 C.3     1  ZINC000066361645   -0.1100
     20 C20        -7.1805    1.8857   54.1491 C.3     1  ZINC000066361645   -0.1100
     21 C21        -6.8060    2.0753   52.6778 C.3     1  ZINC000066361645   -0.1200
     22 C22        -7.3874    0.9264   51.8514 C.3     1  ZINC000066361645   -0.1200
     23 C23        -8.9109    0.9166   51.9927 C.3     1  ZINC000066361645   -0.1200
     24 C24        -9.2854    0.7270   53.4640 C.3     1  ZINC000066361645   -0.1000
     25 O25       -15.1605   -4.1820   56.0434 O.3     1  ZINC000066361645   -0.3000
     26 C26       -15.1315   -5.4893   55.4608 C.3     1  ZINC000066361645    0.0200
     27 C27       -14.7951   -6.5002   56.5654 C.3     1  ZINC000066361645    0.0200
     28 O28       -13.5176   -6.1569   57.1128 O.3     1  ZINC000066361645   -0.3100
     29 H29        -9.3639   -4.4632   58.6749 H       1  ZINC000066361645    0.0900
     30 H30        -9.1713   -2.9211   57.8069 H       1  ZINC000066361645    0.0900
     31 H31        -8.3655   -3.1665   59.3750 H       1  ZINC000066361645    0.1100
     32 H32       -11.6346   -5.2629   58.6742 H       1  ZINC000066361645    0.1400
     33 H33       -14.5337   -1.7570   56.7577 H       1  ZINC000066361645    0.1600
     34 H34       -12.6315   -0.5331   59.2638 H       1  ZINC000066361645    0.4100
     35 H35       -12.7195    2.1472   56.9880 H       1  ZINC000066361645    0.1000
     36 H36       -12.5048    1.7164   58.7016 H       1  ZINC000066361645    0.1200
     37 H37       -10.9217    3.9268   57.9314 H       1  ZINC000066361645    0.0600
     38 H38       -10.6178    2.9627   59.3965 H       1  ZINC000066361645    0.0700
     39 H39        -9.2857    3.3116   58.2687 H       1  ZINC000066361645    0.0700
     40 H40       -10.9710    2.3376   55.5362 H       1  ZINC000066361645    0.4000
     41 H41        -9.1082    2.8224   53.9315 H       1  ZINC000066361645    0.1000
     42 H42        -6.7663    2.7041   54.7378 H       1  ZINC000066361645    0.0600
     43 H43        -6.7762    0.9391   54.5078 H       1  ZINC000066361645    0.0700
     44 H44        -7.2103    3.0218   52.3190 H       1  ZINC000066361645    0.0600
     45 H45        -5.7207    2.0822   52.5770 H       1  ZINC000066361645    0.0700
     46 H46        -7.1206    1.0615   50.8032 H       1  ZINC000066361645    0.0600
     47 H47        -6.9832   -0.0201   52.2101 H       1  ZINC000066361645    0.0600
     48 H48        -9.3152    1.8632   51.6339 H       1  ZINC000066361645    0.0600
     49 H49        -9.3252    0.0981   51.4039 H       1  ZINC000066361645    0.0700
     50 H50        -8.8811   -0.2195   53.8227 H       1  ZINC000066361645    0.0700
     51 H51       -10.3707    0.7200   53.5646 H       1  ZINC000066361645    0.0700
     52 H52       -16.1065   -5.7230   55.0331 H       1  ZINC000066361645    0.1300
     53 H53       -14.3692   -5.5280   54.6825 H       1  ZINC000066361645    0.0800
     54 H54       -15.5536   -6.4567   57.3469 H       1  ZINC000066361645    0.0800
     55 H55       -14.7568   -7.5051   56.1448 H       1  ZINC000066361645    0.1200
@<TRIPOS>BOND
     1     1     2    1
     2     1    29    1
     3     1    30    1
     4     1    31    1
     5     2     3    1
     6     3     8   ar
     7     3     4   ar
     8     4     5   ar
     9     4    32    1
    10     5    28    1
    11     5     6   ar
    12     6     7   ar
    13     6    25    1
    14     7     8   ar
    15     7    33    1
    16     8     9    1
    17     9    10   am
    18     9    34    1
    19    10    11    2
    20    10    12    1
    21    12    13    1
    22    12    35    1
    23    12    36    1
    24    13    14    1
    25    13    15    1
    26    13    16    1
    27    15    37    1
    28    15    38    1
    29    15    39    1
    30    16    17   am
    31    16    40    1
    32    17    18    2
    33    17    19    1
    34    19    24    1
    35    19    20    1
    36    19    41    1
    37    20    21    1
    38    20    42    1
    39    20    43    1
    40    21    22    1
    41    21    44    1
    42    21    45    1
    43    22    23    1
    44    22    46    1
    45    22    47    1
    46    23    24    1
    47    23    48    1
    48    23    49    1
    49    24    50    1
    50    24    51    1
    51    25    26    1
    52    26    27    1
    53    26    52    1
    54    26    53    1
    55    27    28    1
    56    27    54    1
    57    27    55    1
@<TRIPOS>SUBSTRUCTURE
     1 ZINC000066361645        1 TEMP              0 ****  ****    0 ROOT


##########                                Name:    ZINC000420486261
##########                DOCK_Rotatable_Bonds:                   7
##########                         Heavy_Atoms:                  26
##########                    Molecular_Weight:             353.378
##########                DOCK_Rotatable_Bonds:                   7
##########                       Formal_Charge:        -2.98023e-08
##########                     HBond_Acceptors:                   7
##########                        HBond_Donors:                   0
##########                         Heavy_Atoms:                  26
##########                          Grid_Score:          -29.256193
##########                     Grid_vdw_energy:          -29.421787
##########                      Grid_es_energy:            0.165594
##########           Internal_energy_repulsive:            7.360325

@<TRIPOS>MOLECULE
ZINC000420486261
 45 47 1 0 0
SMALL
USER_CHARGES


@<TRIPOS>ATOM
      1 C1        -16.3331   -7.3614   51.1864 C.3     1  ZINC000420486261    0.0400
      2 O2        -15.7576   -8.0369   52.3357 O.3     1  ZINC000420486261   -0.3500
      3 C3        -16.2196   -7.6798   53.5493 C.2     1  ZINC000420486261    0.5100
      4 O4        -16.9080   -8.4499   54.1876 O.2     1  ZINC000420486261   -0.4900
      5 C5        -15.8881   -6.3482   54.1050 C.ar    1  ZINC000420486261   -0.0700
      6 C6        -16.5564   -5.2004   53.6662 C.ar    1  ZINC000420486261   -0.0900
      7 C7        -16.2191   -3.9731   54.2098 C.ar    1  ZINC000420486261    0.1100
      8 N8        -15.2830   -3.8721   55.1283 N.ar    1  ZINC000420486261   -0.4200
      9 C9        -14.6214   -4.9319   55.5764 C.ar    1  ZINC000420486261    0.1900
     10 C10       -13.5778   -4.7601   56.6116 C.2     1  ZINC000420486261    0.2200
     11 N11       -13.0965   -3.6169   57.0593 N.2     1  ZINC000420486261   -0.4300
     12 C12       -12.1756   -3.9516   57.9876 C.2     1  ZINC000420486261    0.2200
     13 C13       -11.3501   -3.0119   58.7850 C.ar    1  ZINC000420486261   -0.0600
     14 C14       -10.1163   -2.5821   58.3025 C.ar    1  ZINC000420486261   -0.0300
     15 C15        -9.3520   -1.7077   59.0483 C.ar    1  ZINC000420486261   -0.1600
     16 C16        -9.8067   -1.2558   60.2745 C.ar    1  ZINC000420486261   -0.0600
     17 C17       -11.0292   -1.6758   60.7628 C.ar    1  ZINC000420486261   -0.2200
     18 C18       -11.8098   -2.5491   60.0220 C.ar    1  ZINC000420486261    0.1700
     19 O19       -13.0115   -2.9626   60.5006 O.3     1  ZINC000420486261   -0.2900
     20 C20       -13.9557   -1.9475   60.8474 C.3     1  ZINC000420486261    0.0600
     21 C21       -14.7908   -1.5862   59.6174 C.3     1  ZINC000420486261   -0.0900
     22 C22       -15.8276   -2.6826   59.3648 C.3     1  ZINC000420486261   -0.1500
     23 C23       -15.5051   -0.2549   59.8591 C.3     1  ZINC000420486261   -0.1500
     24 N24       -12.1460   -5.2585   58.0545 N.2     1  ZINC000420486261   -0.3400
     25 O25       -12.9449   -5.7377   57.2781 O.3     1  ZINC000420486261    0.1000
     26 C26       -14.9034   -6.2053   55.0860 C.ar    1  ZINC000420486261   -0.0700
     27 H27       -15.8740   -7.7417   50.2739 H       1  ZINC000420486261    0.1100
     28 H28       -17.4071   -7.5456   51.1568 H       1  ZINC000420486261    0.0700
     29 H29       -16.1504   -6.2897   51.2657 H       1  ZINC000420486261    0.0700
     30 H30       -17.3263   -5.2709   52.9120 H       1  ZINC000420486261    0.1600
     31 H31       -16.7323   -3.0840   53.8742 H       1  ZINC000420486261    0.1800
     32 H32        -9.7579   -2.9329   57.3460 H       1  ZINC000420486261    0.1400
     33 H33        -8.3951   -1.3753   58.6734 H       1  ZINC000420486261    0.1300
     34 H34        -9.2031   -0.5720   60.8529 H       1  ZINC000420486261    0.1300
     35 H35       -11.3788   -1.3197   61.7206 H       1  ZINC000420486261    0.1400
     36 H36       -14.6114   -2.3155   61.6365 H       1  ZINC000420486261    0.0600
     37 H37       -13.4251   -1.0627   61.1990 H       1  ZINC000420486261    0.0600
     38 H38       -14.1383   -1.4960   58.7490 H       1  ZINC000420486261    0.0800
     39 H39       -16.4800   -2.7728   60.2333 H       1  ZINC000420486261    0.0600
     40 H40       -16.4225   -2.4253   58.4885 H       1  ZINC000420486261    0.0700
     41 H41       -15.3187   -3.6311   59.1926 H       1  ZINC000420486261    0.0600
     42 H42       -16.1575   -0.3450   60.7276 H       1  ZINC000420486261    0.0500
     43 H43       -14.7665    0.5263   60.0391 H       1  ZINC000420486261    0.0600
     44 H44       -16.1001    0.0026   58.9828 H       1  ZINC000420486261    0.0600
     45 H45       -14.3642   -7.0665   55.4522 H       1  ZINC000420486261    0.1600
@<TRIPOS>BOND
     1     1     2    1
     2     1    27    1
     3     1    28    1
     4     1    29    1
     5     2     3    1
     6     3     4    2
     7     3     5    1
     8     5    26   ar
     9     5     6   ar
    10     6     7   ar
    11     6    30    1
    12     7     8   ar
    13     7    31    1
    14     8     9   ar
    15     9    10    1
    16     9    26   ar
    17    10    25    1
    18    10    11    2
    19    11    12    1
    20    12    13    1
    21    12    24    2
    22    13    18   ar
    23    13    14   ar
    24    14    15   ar
    25    14    32    1
    26    15    16   ar
    27    15    33    1
    28    16    17   ar
    29    16    34    1
    30    17    18   ar
    31    17    35    1
    32    18    19    1
    33    19    20    1
    34    20    21    1
    35    20    36    1
    36    20    37    1
    37    21    22    1
    38    21    23    1
    39    21    38    1
    40    22    39    1
    41    22    40    1
    42    22    41    1
    43    23    42    1
    44    23    43    1
    45    23    44    1
    46    24    25    1
    47    26    45    1
@<TRIPOS>SUBSTRUCTURE
     1 ZINC000420486261        1 TEMP              0 ****  ****    0 ROOT


##########                                Name:    ZINC001085711660
##########                DOCK_Rotatable_Bonds:                   8
##########                         Heavy_Atoms:                  25
##########                    Molecular_Weight:             347.414
##########                DOCK_Rotatable_Bonds:                   8
##########                       Formal_Charge:         -0.00999993
##########                     HBond_Acceptors:                   7
##########                        HBond_Donors:                   0
##########                         Heavy_Atoms:                  25
##########                          Grid_Score:          -29.252638
##########                     Grid_vdw_energy:          -28.850763
##########                      Grid_es_energy:           -0.401874
##########           Internal_energy_repulsive:           16.469362

@<TRIPOS>MOLECULE
ZINC001085711660
 50 52 1 0 0
SMALL
USER_CHARGES


@<TRIPOS>ATOM
      1 C1        -15.8593   -2.1953   61.6870 C.3     1  ZINC001085711660    0.0300
      2 O2        -16.0715   -3.6007   61.5398 O.3     1  ZINC001085711660   -0.3800
      3 C3        -17.0546   -3.9406   60.5599 C.3     1  ZINC001085711660    0.1400
      4 C4        -16.5754   -3.5108   59.1974 C.2     1  ZINC001085711660    0.0100
      5 C5        -17.3565   -3.0361   58.2021 C.2     1  ZINC001085711660   -0.1900
      6 C6        -16.5150   -2.7574   57.1138 C.2     1  ZINC001085711660   -0.1200
      7 C7        -15.2473   -3.0802   57.5050 C.2     1  ZINC001085711660   -0.0700
      8 C8        -14.0352   -2.9536   56.6893 C.2     1  ZINC001085711660    0.6000
      9 O9        -14.0447   -3.3104   55.5258 O.2     1  ZINC001085711660   -0.5200
     10 N10       -12.9106   -2.4421   57.2281 N.am    1  ZINC001085711660   -0.6000
     11 C11       -12.8991   -2.0126   58.6287 C.3     1  ZINC001085711660    0.0700
     12 C12       -11.6998   -2.3157   56.4131 C.3     1  ZINC001085711660    0.1300
     13 C13       -11.4557   -0.8407   56.0880 C.3     1  ZINC001085711660    0.0000
     14 H14       -12.1414   -0.1746   56.6118 H       1  ZINC001085711660    0.1000
     15 C15       -11.3551   -0.5547   54.5831 C.3     1  ZINC001085711660   -0.1400
     16 C16       -10.2424    0.4103   55.0160 C.3     1  ZINC001085711660    0.0100
     17 N17       -10.0414   -0.4392   56.2062 N.3     1  ZINC001085711660   -0.4500
     18 C18        -9.8236    0.3793   57.4064 C.3     1  ZINC001085711660    0.1500
     19 H19       -10.7072    0.9888   57.5959 H       1  ZINC001085711660    0.1000
     20 C20        -8.6129    1.2896   57.1901 C.3     1  ZINC001085711660   -0.1900
     21 C21        -9.5708   -0.5203   58.5888 C.2     1  ZINC001085711660    0.2000
     22 N22        -9.1069   -1.7361   58.5315 N.2     1  ZINC001085711660   -0.4700
     23 C23        -9.0148   -2.2218   59.7821 C.2     1  ZINC001085711660   -0.0400
     24 C24        -9.4384   -1.2643   60.6236 C.2     1  ZINC001085711660   -0.0500
     25 C25        -9.5114   -1.3608   62.1258 C.3     1  ZINC001085711660   -0.0700
     26 O26        -9.7807   -0.1992   59.8723 O.3     1  ZINC001085711660   -0.2000
     27 O27       -15.3045   -3.5308   58.7753 O.3     1  ZINC001085711660   -0.1500
     28 H28       -15.5251   -1.7769   60.7377 H       1  ZINC001085711660    0.0500
     29 H29       -16.7915   -1.7165   61.9870 H       1  ZINC001085711660    0.0500
     30 H30       -15.0995   -2.0203   62.4488 H       1  ZINC001085711660    0.0900
     31 H31       -17.2153   -5.0186   60.5652 H       1  ZINC001085711660    0.0900
     32 H32       -17.9905   -3.4327   60.7928 H       1  ZINC001085711660    0.0700
     33 H33       -18.4270   -2.8974   58.2374 H       1  ZINC001085711660    0.1600
     34 H34       -16.8127   -2.3640   56.1530 H       1  ZINC001085711660    0.1600
     35 H35       -12.7123   -2.8732   59.2710 H       1  ZINC001085711660    0.0600
     36 H36       -12.1127   -1.2724   58.7752 H       1  ZINC001085711660    0.0900
     37 H37       -13.8638   -1.5728   58.8817 H       1  ZINC001085711660    0.0800
     38 H38       -10.8474   -2.7120   56.9650 H       1  ZINC001085711660    0.0900
     39 H39       -11.8252   -2.8760   55.4866 H       1  ZINC001085711660    0.0900
     40 H40       -11.0068   -1.4005   53.9904 H       1  ZINC001085711660    0.1000
     41 H41       -12.2328   -0.0640   54.1624 H       1  ZINC001085711660    0.0800
     42 H42        -9.3881    0.4196   54.3392 H       1  ZINC001085711660    0.0900
     43 H43       -10.6036    1.4108   55.2538 H       1  ZINC001085711660    0.0800
     44 H44        -7.7541    0.6875   56.8935 H       1  ZINC001085711660    0.0800
     45 H45        -8.8377    2.0130   56.4065 H       1  ZINC001085711660    0.0800
     46 H46        -8.3845    1.8166   58.1165 H       1  ZINC001085711660    0.0700
     47 H47        -8.6639   -3.2047   60.0598 H       1  ZINC001085711660    0.1800
     48 H48        -8.5699   -1.0216   62.5577 H       1  ZINC001085711660    0.0800
     49 H49       -10.3253   -0.7344   62.4910 H       1  ZINC001085711660    0.0800
     50 H50        -9.6918   -2.3961   62.4149 H       1  ZINC001085711660    0.0900
@<TRIPOS>BOND
     1     1     2    1
     2     1    28    1
     3     1    29    1
     4     1    30    1
     5     2     3    1
     6     3     4    1
     7     3    31    1
     8     3    32    1
     9     4    27    1
    10     4     5    2
    11     5     6    1
    12     5    33    1
    13     6     7    2
    14     6    34    1
    15     7     8    1
    16     7    27    1
    17     8     9    2
    18     8    10   am
    19    10    11    1
    20    10    12    1
    21    11    35    1
    22    11    36    1
    23    11    37    1
    24    12    13    1
    25    12    38    1
    26    12    39    1
    27    13    14    1
    28    13    17    1
    29    13    15    1
    30    15    16    1
    31    15    40    1
    32    15    41    1
    33    16    17    1
    34    16    42    1
    35    16    43    1
    36    17    18    1
    37    18    19    1
    38    18    20    1
    39    18    21    1
    40    20    44    1
    41    20    45    1
    42    20    46    1
    43    21    26    1
    44    21    22    2
    45    22    23    1
    46    23    24    2
    47    23    47    1
    48    24    25    1
    49    24    26    1
    50    25    48    1
    51    25    49    1
    52    25    50    1
@<TRIPOS>SUBSTRUCTURE
     1 ZINC001085711660        1 TEMP              0 ****  ****    0 ROOT


##########                                Name:    ZINC001060578637
##########                DOCK_Rotatable_Bonds:                  10
##########                         Heavy_Atoms:                  25
##########                    Molecular_Weight:             345.401
##########                DOCK_Rotatable_Bonds:                  10
##########                       Formal_Charge:          -0.0400001
##########                     HBond_Acceptors:                   8
##########                        HBond_Donors:                   3
##########                         Heavy_Atoms:                  25
##########                          Grid_Score:          -29.242905
##########                     Grid_vdw_energy:          -28.981472
##########                      Grid_es_energy:           -0.261432
##########           Internal_energy_repulsive:           18.491770

@<TRIPOS>MOLECULE
ZINC001060578637
 48 49 1 0 0
SMALL
USER_CHARGES


@<TRIPOS>ATOM
      1 C1          4.7988   -0.1626   43.6362 C.3     1  ZINC001060578637   -0.1500
      2 C2          3.3187   -0.0027   43.9888 C.3     1  ZINC001060578637   -0.1300
      3 C3          2.6164    0.7986   42.8908 C.3     1  ZINC001060578637    0.0700
      4 H4          2.6579    0.2440   41.9533 H       1  ZINC001060578637    0.0900
      5 O5          3.2706    2.0586   42.7282 O.3     1  ZINC001060578637   -0.3600
      6 C6          3.2465    2.8811   43.8966 C.3     1  ZINC001060578637    0.0300
      7 C7          1.1775    1.0258   43.2767 C.2     1  ZINC001060578637    0.5000
      8 O8          0.5956    2.0176   42.8913 O.2     1  ZINC001060578637   -0.5200
      9 N9          0.5373    0.1268   44.0504 N.am    1  ZINC001060578637   -0.7300
     10 C10        -0.8620    0.3467   44.4243 C.3     1  ZINC001060578637    0.1600
     11 C11        -0.9246    0.9475   45.8049 C.ar    1  ZINC001060578637   -0.1100
     12 C12        -1.0832    0.1298   46.9080 C.ar    1  ZINC001060578637   -0.0900
     13 C13        -1.1406    0.6810   48.1745 C.ar    1  ZINC001060578637   -0.1100
     14 C14        -1.0390    2.0499   48.3377 C.ar    1  ZINC001060578637   -0.0900
     15 C15        -1.1021    2.6509   49.7182 C.3     1  ZINC001060578637    0.1800
     16 H16        -1.0629    3.7377   49.6434 H       1  ZINC001060578637    0.1000
     17 C17         0.0848    2.1536   50.5458 C.3     1  ZINC001060578637   -0.1600
     18 N18        -2.3524    2.2509   50.3684 N.am    1  ZINC001060578637   -0.7000
     19 C19        -3.0104    3.1228   51.1580 C.2     1  ZINC001060578637    0.6100
     20 O20        -2.5653    4.2409   51.3320 O.2     1  ZINC001060578637   -0.5300
     21 C21        -4.2698    2.7208   51.8110 C.2     1  ZINC001060578637    0.1200
     22 N22        -4.8484    1.5413   51.7373 N.2     1  ZINC001060578637   -0.2400
     23 N23        -5.9302    1.5509   52.4323 N.2     1  ZINC001060578637   -0.2900
     24 C24        -6.0980    2.7286   52.9826 C.2     1  ZINC001060578637    0.1900
     25 N25        -5.0579    3.5030   52.6154 N.pl3   1  ZINC001060578637   -0.5500
     26 C26        -0.8790    2.8675   47.2346 C.ar    1  ZINC001060578637   -0.1100
     27 C27        -0.8177    2.3161   45.9686 C.ar    1  ZINC001060578637   -0.0900
     28 H28         5.2925   -0.7598   44.4028 H       1  ZINC001060578637    0.0600
     29 H29         4.8906   -0.6618   42.6716 H       1  ZINC001060578637    0.0500
     30 H30         5.2678    0.8199   43.5830 H       1  ZINC001060578637    0.0600
     31 H31         2.8567   -0.9864   44.0725 H       1  ZINC001060578637    0.0800
     32 H32         3.2262    0.5241   44.9386 H       1  ZINC001060578637    0.0800
     33 H33         3.8286    3.7849   43.7167 H       1  ZINC001060578637    0.0900
     34 H34         2.2166    3.1524   44.1286 H       1  ZINC001060578637    0.0500
     35 H35         3.6758    2.3332   44.7354 H       1  ZINC001060578637    0.0400
     36 H36         1.0032   -0.6658   44.3597 H       1  ZINC001060578637    0.4000
     37 H37        -1.3261    1.0272   43.7105 H       1  ZINC001060578637    0.0800
     38 H38        -1.3936   -0.6048   44.4177 H       1  ZINC001060578637    0.0800
     39 H39        -1.1625   -0.9397   46.7805 H       1  ZINC001060578637    0.1300
     40 H40        -1.2652    0.0421   49.0363 H       1  ZINC001060578637    0.1300
     41 H41         0.0457    1.0669   50.6205 H       1  ZINC001060578637    0.0600
     42 H42         1.0152    2.4512   50.0620 H       1  ZINC001060578637    0.0700
     43 H43         0.0392    2.5884   51.5442 H       1  ZINC001060578637    0.0700
     44 H44        -2.7069    1.3586   50.2306 H       1  ZINC001060578637    0.4100
     45 H45        -6.9194    3.0238   53.6186 H       1  ZINC001060578637    0.2300
     46 H46        -4.9016    4.4272   52.8648 H       1  ZINC001060578637    0.4400
     47 H47        -0.7992    3.9370   47.3623 H       1  ZINC001060578637    0.1300
     48 H48        -0.6928    2.9549   45.1067 H       1  ZINC001060578637    0.1300
@<TRIPOS>BOND
     1     1     2    1
     2     1    28    1
     3     1    29    1
     4     1    30    1
     5     2     3    1
     6     2    31    1
     7     2    32    1
     8     3     4    1
     9     3     5    1
    10     3     7    1
    11     5     6    1
    12     6    33    1
    13     6    34    1
    14     6    35    1
    15     7     8    2
    16     7     9   am
    17     9    10    1
    18     9    36    1
    19    10    11    1
    20    10    37    1
    21    10    38    1
    22    11    27   ar
    23    11    12   ar
    24    12    13   ar
    25    12    39    1
    26    13    14   ar
    27    13    40    1
    28    14    15    1
    29    14    26   ar
    30    15    16    1
    31    15    17    1
    32    15    18    1
    33    17    41    1
    34    17    42    1
    35    17    43    1
    36    18    19   am
    37    18    44    1
    38    19    20    2
    39    19    21    1
    40    21    25    1
    41    21    22    2
    42    22    23    1
    43    23    24    2
    44    24    25    1
    45    24    45    1
    46    25    46    1
    47    26    27   ar
    48    26    47    1
    49    27    48    1
@<TRIPOS>SUBSTRUCTURE
     1 ZINC001060578637        1 TEMP              0 ****  ****    0 ROOT


##########                                Name:    ZINC000301324012
##########                DOCK_Rotatable_Bonds:                   7
##########                         Heavy_Atoms:                  28
##########                    Molecular_Weight:               415.9
##########                DOCK_Rotatable_Bonds:                   7
##########                       Formal_Charge:          -0.0100002
##########                     HBond_Acceptors:                   8
##########                        HBond_Donors:                   2
##########                         Heavy_Atoms:                  28
##########                          Grid_Score:          -29.242226
##########                     Grid_vdw_energy:          -28.385965
##########                      Grid_es_energy:           -0.856260
##########           Internal_energy_repulsive:            9.794241

@<TRIPOS>MOLECULE
ZINC000301324012
 46 48 1 0 0
SMALL
USER_CHARGES


@<TRIPOS>ATOM
      1 C1         -7.9609    3.6041   53.8799 C.3     1  ZINC000301324012   -0.1600
      2 C2         -7.5202    2.2126   54.3390 C.3     1  ZINC000301324012    0.2000
      3 H3         -6.5950    2.2943   54.9094 H       1  ZINC000301324012    0.1100
      4 N4         -8.5633    1.6236   55.1823 N.am    1  ZINC000301324012   -0.7100
      5 C5         -8.7159    2.0398   56.4550 C.2     1  ZINC000301324012    0.5500
      6 O6         -7.9891    2.9051   56.9028 O.2     1  ZINC000301324012   -0.5300
      7 C7         -9.7675    1.4440   57.3066 C.ar    1  ZINC000301324012   -0.0700
      8 C8        -10.1161    2.0480   58.5156 C.ar    1  ZINC000301324012   -0.1100
      9 C9        -11.0985    1.4872   59.3053 C.ar    1  ZINC000301324012   -0.0200
     10 C10       -11.7375    0.3284   58.9012 C.ar    1  ZINC000301324012   -0.6600
     11 S11       -12.9909   -0.3816   59.9160 S.o2    1  ZINC000301324012    2.6900
     12 O12       -13.3905    0.6321   60.8282 O.2     1  ZINC000301324012   -0.9400
     13 O13       -13.8951   -1.0368   59.0373 O.2     1  ZINC000301324012   -0.9400
     14 N14       -12.2747   -1.5692   60.8210 N.am    1  ZINC000301324012   -1.0500
     15 C15       -11.2292   -1.2496   61.6915 C.ar    1  ZINC000301324012    0.1600
     16 C16       -11.4840   -0.5275   62.8497 C.ar    1  ZINC000301324012   -0.1600
     17 C17       -10.4482   -0.2132   63.7082 C.ar    1  ZINC000301324012   -0.0800
     18 C18        -9.1586   -0.6164   63.4154 C.ar    1  ZINC000301324012   -0.1200
     19 C19        -8.9003   -1.3360   62.2628 C.ar    1  ZINC000301324012   -0.0900
     20 C20        -9.9323   -1.6591   61.4027 C.ar    1  ZINC000301324012   -0.0600
     21 Cl21       -9.6077   -2.5622   59.9561 Cl      1  ZINC000301324012   -0.0600
     22 C22       -11.3970   -0.2751   57.7036 C.ar    1  ZINC000301324012   -0.0200
     23 C23       -10.4201    0.2784   56.9021 C.ar    1  ZINC000301324012   -0.0800
     24 C24        -7.2924    1.3353   53.1351 C.ar    1  ZINC000301324012    0.1200
     25 C25        -6.0696    1.3621   52.4921 C.ar    1  ZINC000301324012   -0.1600
     26 C26        -5.8701    0.5505   51.3855 C.ar    1  ZINC000301324012   -0.0700
     27 C27        -6.9128   -0.2609   50.9658 C.ar    1  ZINC000301324012   -0.1700
     28 C28        -8.1082   -0.2343   51.6593 C.ar    1  ZINC000301324012    0.1100
     29 N29        -8.2607    0.5467   52.7108 N.ar    1  ZINC000301324012   -0.4900
     30 H30        -7.1848    4.0424   53.2526 H       1  ZINC000301324012    0.0700
     31 H31        -8.8861    3.5224   53.3097 H       1  ZINC000301324012    0.0600
     32 H32        -8.1256    4.2387   54.7507 H       1  ZINC000301324012    0.0700
     33 H33        -9.1441    0.9338   54.8246 H       1  ZINC000301324012    0.4100
     34 H34        -9.6175    2.9521   58.8325 H       1  ZINC000301324012    0.1400
     35 H35       -11.3692    1.9535   60.2411 H       1  ZINC000301324012    0.1500
     36 H36       -12.5809   -2.4866   60.7468 H       1  ZINC000301324012    0.4300
     37 H37       -12.4909   -0.2115   63.0790 H       1  ZINC000301324012    0.1700
     38 H38       -10.6462    0.3485   64.6091 H       1  ZINC000301324012    0.1400
     39 H39        -8.3508   -0.3685   64.0882 H       1  ZINC000301324012    0.1400
     40 H40        -7.8917   -1.6493   62.0371 H       1  ZINC000301324012    0.1400
     41 H41       -11.8999   -1.1792   57.3938 H       1  ZINC000301324012    0.1500
     42 H42       -10.1555   -0.1935   55.9673 H       1  ZINC000301324012    0.1500
     43 H43        -5.2794    2.0073   52.8466 H       1  ZINC000301324012    0.1400
     44 H44        -4.9250    0.5509   50.8629 H       1  ZINC000301324012    0.1400
     45 H45        -6.7928   -0.9054   50.1076 H       1  ZINC000301324012    0.1400
     46 H46        -8.9255   -0.8631   51.3385 H       1  ZINC000301324012    0.1600
@<TRIPOS>BOND
     1     1     2    1
     2     1    30    1
     3     1    31    1
     4     1    32    1
     5     2     3    1
     6     2     4    1
     7     2    24    1
     8     4     5   am
     9     4    33    1
    10     5     6    2
    11     5     7    1
    12     7    23   ar
    13     7     8   ar
    14     8     9   ar
    15     8    34    1
    16     9    10   ar
    17     9    35    1
    18    10    11    1
    19    10    22   ar
    20    11    12    2
    21    11    13    2
    22    11    14   am
    23    14    15    1
    24    14    36    1
    25    15    20   ar
    26    15    16   ar
    27    16    17   ar
    28    16    37    1
    29    17    18   ar
    30    17    38    1
    31    18    19   ar
    32    18    39    1
    33    19    20   ar
    34    19    40    1
    35    20    21    1
    36    22    23   ar
    37    22    41    1
    38    23    42    1
    39    24    29   ar
    40    24    25   ar
    41    25    26   ar
    42    25    43    1
    43    26    27   ar
    44    26    44    1
    45    27    28   ar
    46    27    45    1
    47    28    29   ar
    48    28    46    1
@<TRIPOS>SUBSTRUCTURE
     1 ZINC000301324012        1 TEMP              0 ****  ****    0 ROOT


##########                                Name:    ZINC000265786263
##########                DOCK_Rotatable_Bonds:                   7
##########                         Heavy_Atoms:                  28
##########                    Molecular_Weight:             386.451
##########                DOCK_Rotatable_Bonds:                   7
##########                       Formal_Charge:           0.0499992
##########                     HBond_Acceptors:                   8
##########                        HBond_Donors:                   2
##########                         Heavy_Atoms:                  28
##########                          Grid_Score:          -29.216961
##########                     Grid_vdw_energy:          -27.151310
##########                      Grid_es_energy:           -2.065650
##########           Internal_energy_repulsive:           21.599773

@<TRIPOS>MOLECULE
ZINC000265786263
 54 57 1 0 0
SMALL
USER_CHARGES


@<TRIPOS>ATOM
      1 C1         -9.7712   -0.7928   62.4998 C.3     1  ZINC000265786263   -0.1500
      2 C2        -10.5197   -0.8638   61.1672 C.3     1  ZINC000265786263    0.1600
      3 C3        -11.9725   -0.4173   61.3434 C.3     1  ZINC000265786263   -0.1600
      4 C4        -12.2481    1.0868   61.3938 C.3     1  ZINC000265786263   -0.1600
      5 C5        -12.6467    0.2771   60.1584 C.3     1  ZINC000265786263   -0.1600
      6 N6         -9.8422   -0.0442   60.1479 N.am    1  ZINC000265786263   -0.7100
      7 C7         -9.4681   -0.8837   59.1655 C.2     1  ZINC000265786263    0.7100
      8 O8         -8.8792   -0.5305   58.1627 O.2     1  ZINC000265786263   -0.5400
      9 N9         -9.8170   -2.1509   59.4157 N.am    1  ZINC000265786263   -0.5600
     10 C10        -9.5357   -3.2744   58.5185 C.3     1  ZINC000265786263    0.1000
     11 C11       -10.8143   -4.0173   58.2277 C.2     1  ZINC000265786263    0.5100
     12 O12       -11.0929   -5.0149   58.8587 O.2     1  ZINC000265786263   -0.5300
     13 N13       -11.6481   -3.5731   57.2665 N.am    1  ZINC000265786263   -0.6100
     14 C14       -12.9047   -4.2785   56.9721 C.3     1  ZINC000265786263    0.1100
     15 C15       -14.0500   -3.2606   56.9898 C.3     1  ZINC000265786263    0.0400
     16 N16       -13.7310   -2.1534   56.0786 N.3     1  ZINC000265786263   -0.5300
     17 C17       -14.8752   -1.2434   55.9350 C.3     1  ZINC000265786263    0.0900
     18 C18       -15.6634   -1.6174   54.7062 C.ar    1  ZINC000265786263   -0.0600
     19 C19       -16.6920   -2.5363   54.7987 C.ar    1  ZINC000265786263   -0.1300
     20 C20       -17.4172   -2.8816   53.6730 C.ar    1  ZINC000265786263   -0.1000
     21 C21       -17.1152   -2.3087   52.4529 C.ar    1  ZINC000265786263   -0.1400
     22 C22       -16.0832   -1.3862   52.3575 C.ar    1  ZINC000265786263    0.1100
     23 O23       -15.7844   -0.8210   51.1583 O.3     1  ZINC000265786263   -0.5000
     24 C24       -15.3610   -1.0373   53.4891 C.ar    1  ZINC000265786263   -0.1200
     25 C25       -12.5332   -1.4273   56.5212 C.3     1  ZINC000265786263    0.0400
     26 C26       -11.3287   -2.3665   56.4885 C.3     1  ZINC000265786263    0.1200
     27 C27       -10.4584   -2.2663   60.5953 C.2     1  ZINC000265786263    0.5400
     28 O28       -10.8949   -3.2808   61.0953 O.2     1  ZINC000265786263   -0.4500
     29 H29        -8.7302   -1.0779   62.3475 H       1  ZINC000265786263    0.0700
     30 H30        -9.8163    0.2247   62.8880 H       1  ZINC000265786263    0.0800
     31 H31       -10.2340   -1.4747   63.2133 H       1  ZINC000265786263    0.0900
     32 H32       -12.5908   -1.0639   61.9661 H       1  ZINC000265786263    0.1100
     33 H33       -13.0479    1.4301   62.0501 H       1  ZINC000265786263    0.1000
     34 H34       -11.3945    1.7583   61.3016 H       1  ZINC000265786263    0.1100
     35 H35       -12.0553    0.4159   59.2533 H       1  ZINC000265786263    0.1000
     36 H36       -13.7087    0.0877   60.0019 H       1  ZINC000265786263    0.1000
     37 H37        -9.6949    0.9140   60.1788 H       1  ZINC000265786263    0.4400
     38 H38        -9.1141   -2.8982   57.5863 H       1  ZINC000265786263    0.1300
     39 H39        -8.8234   -3.9490   58.9933 H       1  ZINC000265786263    0.1300
     40 H40       -12.8422   -4.7423   55.9877 H       1  ZINC000265786263    0.0900
     41 H41       -13.0819   -5.0423   57.7293 H       1  ZINC000265786263    0.0900
     42 H42       -14.9715   -3.7443   56.6658 H       1  ZINC000265786263    0.0900
     43 H43       -14.1777   -2.8742   58.0010 H       1  ZINC000265786263    0.0400
     44 H44       -15.5143   -1.3218   56.8144 H       1  ZINC000265786263    0.0900
     45 H45       -14.5150   -0.2193   55.8378 H       1  ZINC000265786263    0.0500
     46 H46       -16.9296   -2.9855   55.7517 H       1  ZINC000265786263    0.1200
     47 H47       -18.2202   -3.5999   53.7478 H       1  ZINC000265786263    0.1300
     48 H48       -17.6817   -2.5790   51.5740 H       1  ZINC000265786263    0.1300
     49 H49       -15.0610   -0.1802   51.1948 H       1  ZINC000265786263    0.3900
     50 H50       -14.5572   -0.3195   53.4174 H       1  ZINC000265786263    0.1300
     51 H51       -12.3546   -0.5813   55.8574 H       1  ZINC000265786263    0.1000
     52 H52       -12.6820   -1.0664   57.5389 H       1  ZINC000265786263    0.0400
     53 H53       -10.4629   -1.8670   56.9235 H       1  ZINC000265786263    0.1000
     54 H54       -11.1125   -2.6491   55.4582 H       1  ZINC000265786263    0.0800
@<TRIPOS>BOND
     1     1     2    1
     2     1    29    1
     3     1    30    1
     4     1    31    1
     5     2    27    1
     6     2     3    1
     7     2     6    1
     8     3     5    1
     9     3     4    1
    10     3    32    1
    11     4     5    1
    12     4    33    1
    13     4    34    1
    14     5    35    1
    15     5    36    1
    16     6     7   am
    17     6    37    1
    18     7     8    2
    19     7     9   am
    20     9    10    1
    21     9    27   am
    22    10    11    1
    23    10    38    1
    24    10    39    1
    25    11    12    2
    26    11    13   am
    27    13    26    1
    28    13    14    1
    29    14    15    1
    30    14    40    1
    31    14    41    1
    32    15    16    1
    33    15    42    1
    34    15    43    1
    35    16    17    1
    36    16    25    1
    37    17    18    1
    38    17    44    1
    39    17    45    1
    40    18    24   ar
    41    18    19   ar
    42    19    20   ar
    43    19    46    1
    44    20    21   ar
    45    20    47    1
    46    21    22   ar
    47    21    48    1
    48    22    23    1
    49    22    24   ar
    50    23    49    1
    51    24    50    1
    52    25    26    1
    53    25    51    1
    54    25    52    1
    55    26    53    1
    56    26    54    1
    57    27    28    2
@<TRIPOS>SUBSTRUCTURE
     1 ZINC000265786263        1 TEMP              0 ****  ****    0 ROOT


##########                                Name:    ZINC000482910431
##########                DOCK_Rotatable_Bonds:                   7
##########                         Heavy_Atoms:                  29
##########                    Molecular_Weight:             414.867
##########                DOCK_Rotatable_Bonds:                   7
##########                       Formal_Charge:          -0.0300001
##########                     HBond_Acceptors:                   8
##########                        HBond_Donors:                   2
##########                         Heavy_Atoms:                  29
##########                          Grid_Score:          -29.205496
##########                     Grid_vdw_energy:          -24.683317
##########                      Grid_es_energy:           -4.522179
##########           Internal_energy_repulsive:           19.072870

@<TRIPOS>MOLECULE
ZINC000482910431
 49 51 1 0 0
SMALL
USER_CHARGES


@<TRIPOS>ATOM
      1 C1         -6.5818    0.3750   52.4341 C.3     1  ZINC000482910431   -0.1500
      2 C2         -8.0117    0.8934   52.5998 C.3     1  ZINC000482910431    0.0800
      3 C3         -8.1832    2.1829   51.7943 C.3     1  ZINC000482910431   -0.1400
      4 C4         -8.9609   -0.1201   52.1114 C.1     1  ZINC000482910431    0.2100
      5 N5         -9.6934   -0.9023   51.7345 N.1     1  ZINC000482910431   -0.4300
      6 C6         -8.2795    1.1717   54.0564 C.ar    1  ZINC000482910431   -0.1000
      7 C7         -9.5620    1.0466   54.5582 C.ar    1  ZINC000482910431   -0.0900
      8 C8         -9.8107    1.3005   55.8929 C.ar    1  ZINC000482910431   -0.1200
      9 C9         -8.7713    1.6818   56.7311 C.ar    1  ZINC000482910431    0.1700
     10 N10        -9.0200    1.9393   58.0840 N.am    1  ZINC000482910431   -0.6800
     11 C11        -9.6656    1.0263   58.8361 C.2     1  ZINC000482910431    0.7100
     12 O12       -10.0322   -0.0211   58.3393 O.2     1  ZINC000482910431   -0.5500
     13 N13        -9.9051    1.2743   60.1391 N.am    1  ZINC000482910431   -0.7300
     14 C14       -10.6085    0.2826   60.9563 C.3     1  ZINC000482910431    0.1400
     15 H15       -10.9188   -0.5641   60.3441 H       1  ZINC000482910431    0.1400
     16 C16        -9.7109   -0.1927   62.1223 C.3     1  ZINC000482910431   -0.1400
     17 C17       -10.7403   -0.3692   63.2605 C.3     1  ZINC000482910431    0.0900
     18 N18       -11.8490    0.5336   62.9292 N.am    1  ZINC000482910431   -0.5600
     19 C19       -12.8285    0.9483   63.8390 C.ar    1  ZINC000482910431    0.2000
     20 C20       -12.4600    1.6016   65.0075 C.ar    1  ZINC000482910431   -0.1600
     21 C21       -13.4277    2.0106   65.9046 C.ar    1  ZINC000482910431   -0.0500
     22 C22       -14.7639    1.7701   65.6405 C.ar    1  ZINC000482910431   -0.1000
     23 Cl23      -15.9772    2.2854   66.7703 Cl      1  ZINC000482910431   -0.0500
     24 C24       -15.1357    1.1186   64.4747 C.ar    1  ZINC000482910431    0.1400
     25 F25       -16.4414    0.8852   64.2185 F       1  ZINC000482910431   -0.1200
     26 C26       -14.1705    0.7122   63.5715 C.ar    1  ZINC000482910431   -0.1900
     27 C27       -11.8049    0.9101   61.6372 C.2     1  ZINC000482910431    0.5000
     28 O28       -12.6050    1.6471   61.1007 O.2     1  ZINC000482910431   -0.4800
     29 C29        -7.4845    1.8066   56.2241 C.ar    1  ZINC000482910431   -0.1400
     30 C30        -7.2414    1.5461   54.8897 C.ar    1  ZINC000482910431   -0.0900
     31 H31        -5.8790    1.1255   52.7958 H       1  ZINC000482910431    0.0800
     32 H32        -6.4597   -0.5437   53.0080 H       1  ZINC000482910431    0.0700
     33 H33        -6.3881    0.1736   51.3805 H       1  ZINC000482910431    0.0700
     34 H34        -7.9894    1.9815   50.7406 H       1  ZINC000482910431    0.0700
     35 H35        -9.2018    2.5523   51.9123 H       1  ZINC000482910431    0.0700
     36 H36        -7.4803    2.9334   52.1560 H       1  ZINC000482910431    0.0800
     37 H37       -10.3701    0.7504   53.9058 H       1  ZINC000482910431    0.1400
     38 H38       -10.8127    1.2030   56.2841 H       1  ZINC000482910431    0.1400
     39 H39        -8.7276    2.7750   58.4802 H       1  ZINC000482910431    0.4100
     40 H40        -9.6117    2.1094   60.5357 H       1  ZINC000482910431    0.4000
     41 H41        -9.2287   -1.1403   61.8820 H       1  ZINC000482910431    0.1100
     42 H42        -8.9713    0.5656   62.3793 H       1  ZINC000482910431    0.1000
     43 H43       -11.0912   -1.4006   63.2951 H       1  ZINC000482910431    0.0900
     44 H44       -10.2978   -0.0882   64.2162 H       1  ZINC000482910431    0.1000
     45 H45       -11.4170    1.7897   65.2152 H       1  ZINC000482910431    0.1700
     46 H46       -13.1405    2.5182   66.8136 H       1  ZINC000482910431    0.1500
     47 H47       -14.4595    0.2050   62.6629 H       1  ZINC000482910431    0.1500
     48 H48        -6.6741    2.1029   56.8735 H       1  ZINC000482910431    0.1300
     49 H49        -6.2408    1.6426   54.4949 H       1  ZINC000482910431    0.1300
@<TRIPOS>BOND
     1     1     2    1
     2     1    31    1
     3     1    32    1
     4     1    33    1
     5     2     3    1
     6     2     4    1
     7     2     6    1
     8     3    34    1
     9     3    35    1
    10     3    36    1
    11     4     5    3
    12     6    30   ar
    13     6     7   ar
    14     7     8   ar
    15     7    37    1
    16     8     9   ar
    17     8    38    1
    18     9    10    1
    19     9    29   ar
    20    10    11   am
    21    10    39    1
    22    11    12    2
    23    11    13   am
    24    13    14    1
    25    13    40    1
    26    14    15    1
    27    14    27    1
    28    14    16    1
    29    16    17    1
    30    16    41    1
    31    16    42    1
    32    17    18    1
    33    17    43    1
    34    17    44    1
    35    18    19    1
    36    18    27   am
    37    19    26   ar
    38    19    20   ar
    39    20    21   ar
    40    20    45    1
    41    21    22   ar
    42    21    46    1
    43    22    23    1
    44    22    24   ar
    45    24    25    1
    46    24    26   ar
    47    26    47    1
    48    27    28    2
    49    29    30   ar
    50    29    48    1
    51    30    49    1
@<TRIPOS>SUBSTRUCTURE
     1 ZINC000482910431        1 TEMP              0 ****  ****    0 ROOT


##########                                Name:    ZINC000863208514
##########                DOCK_Rotatable_Bonds:                   6
##########                         Heavy_Atoms:                  19
##########                    Molecular_Weight:             368.657
##########                DOCK_Rotatable_Bonds:                   6
##########                       Formal_Charge:           0.0100005
##########                     HBond_Acceptors:                   7
##########                        HBond_Donors:                   2
##########                         Heavy_Atoms:                  19
##########                          Grid_Score:          -29.185249
##########                     Grid_vdw_energy:          -23.404419
##########                      Grid_es_energy:           -5.780831
##########           Internal_energy_repulsive:           17.073902

@<TRIPOS>MOLECULE
ZINC000863208514
 31 31 1 0 0
SMALL
USER_CHARGES


@<TRIPOS>ATOM
      1 C1         -7.1535   -0.6257   67.2159 C.3     1  ZINC000863208514    0.0900
      2 N2         -7.8692   -0.1436   66.0321 N.am    1  ZINC000863208514   -0.6100
      3 C3         -7.5201    1.1510   65.4418 C.3     1  ZINC000863208514    0.0700
      4 C4         -8.8490   -0.8910   65.4861 C.2     1  ZINC000863208514    0.5100
      5 O5         -9.1390   -1.9619   65.9758 O.2     1  ZINC000863208514   -0.5400
      6 C6         -9.5840   -0.3958   64.2673 C.3     1  ZINC000863208514    0.1100
      7 N7         -8.9610   -0.9500   63.0627 N.am    1  ZINC000863208514   -0.6600
      8 C8         -9.6444   -0.9752   61.9013 C.2     1  ZINC000863208514    0.5600
      9 S9        -11.2412   -0.3615   61.8342 S.2     1  ZINC000863208514   -0.6000
     10 N10        -9.0707   -1.4837   60.7928 N.am    1  ZINC000863208514   -0.6300
     11 C11        -9.7809   -1.5099   59.5859 C.ar    1  ZINC000863208514    0.1200
     12 C12        -9.8175   -0.3837   58.7763 C.ar    1  ZINC000863208514   -0.0300
     13 C13       -10.5190   -0.4122   57.5850 C.ar    1  ZINC000863208514   -0.0200
     14 Cl14      -10.5645    0.9965   56.5715 Cl      1  ZINC000863208514   -0.0300
     15 C15       -11.1845   -1.5630   57.1993 C.ar    1  ZINC000863208514   -0.0600
     16 Br16      -12.1426   -1.5978   55.5693 Br      1  ZINC000863208514   -0.0100
     17 C17       -11.1498   -2.6882   58.0040 C.ar    1  ZINC000863208514   -0.1100
     18 C18       -10.4460   -2.6668   59.1939 C.ar    1  ZINC000863208514    0.1100
     19 F19       -10.4122   -3.7655   59.9794 F       1  ZINC000863208514   -0.1200
     20 H20        -6.4033    0.1080   67.5108 H       1  ZINC000863208514    0.0800
     21 H21        -7.8598   -0.7717   68.0332 H       1  ZINC000863208514    0.0700
     22 H22        -6.6648   -1.5722   66.9847 H       1  ZINC000863208514    0.0700
     23 H23        -6.7435    1.0099   64.6901 H       1  ZINC000863208514    0.0700
     24 H24        -8.4030    1.5873   64.9747 H       1  ZINC000863208514    0.0800
     25 H25        -7.1540    1.8189   66.2215 H       1  ZINC000863208514    0.0800
     26 H26       -10.6254   -0.7137   64.3169 H       1  ZINC000863208514    0.1200
     27 H27        -9.5376    0.6927   64.2323 H       1  ZINC000863208514    0.1200
     28 H28        -8.0568   -1.2989   63.1011 H       1  ZINC000863208514    0.4100
     29 H29        -8.1660   -1.8315   60.8309 H       1  ZINC000863208514    0.4200
     30 H30        -9.2987    0.5148   59.0766 H       1  ZINC000863208514    0.1800
     31 H31       -11.6700   -3.5848   57.7008 H       1  ZINC000863208514    0.1600
@<TRIPOS>BOND
     1     1     2    1
     2     1    20    1
     3     1    21    1
     4     1    22    1
     5     2     3    1
     6     2     4   am
     7     3    23    1
     8     3    24    1
     9     3    25    1
    10     4     5    2
    11     4     6    1
    12     6     7    1
    13     6    26    1
    14     6    27    1
    15     7     8   am
    16     7    28    1
    17     8     9    2
    18     8    10   am
    19    10    11    1
    20    10    29    1
    21    11    18   ar
    22    11    12   ar
    23    12    13   ar
    24    12    30    1
    25    13    14    1
    26    13    15   ar
    27    15    16    1
    28    15    17   ar
    29    17    18   ar
    30    17    31    1
    31    18    19    1
@<TRIPOS>SUBSTRUCTURE
     1 ZINC000863208514        1 TEMP              0 ****  ****    0 ROOT


##########                                Name:    ZINC001004075025
##########                DOCK_Rotatable_Bonds:                   8
##########                         Heavy_Atoms:                  25
##########                    Molecular_Weight:              349.43
##########                DOCK_Rotatable_Bonds:                   8
##########                       Formal_Charge:         -0.00999999
##########                     HBond_Acceptors:                   7
##########                        HBond_Donors:                   1
##########                         Heavy_Atoms:                  25
##########                          Grid_Score:          -29.178919
##########                     Grid_vdw_energy:          -25.589827
##########                      Grid_es_energy:           -3.589092
##########           Internal_energy_repulsive:           11.332781

@<TRIPOS>MOLECULE
ZINC001004075025
 52 54 1 0 0
SMALL
USER_CHARGES


@<TRIPOS>ATOM
      1 C1          4.1896    6.2816   53.5459 C.3     1  ZINC001004075025   -0.1500
      2 C2          5.1770    5.6165   54.5069 C.3     1  ZINC001004075025   -0.1200
      3 C3          5.4695    4.1917   54.0320 C.3     1  ZINC001004075025    0.0800
      4 H4          5.8689    4.2060   53.0180 H       1  ZINC001004075025    0.0700
      5 C5          6.4678    3.4988   54.9934 C.3     1  ZINC001004075025   -0.1500
      6 C6          6.1241    2.0042   54.7481 C.3     1  ZINC001004075025   -0.1400
      7 C7          4.6030    2.0560   54.4889 C.3     1  ZINC001004075025    0.0700
      8 H8          4.0636    1.8011   55.4011 H       1  ZINC001004075025    0.1100
      9 C9          4.2381    1.0891   53.3921 C.2     1  ZINC001004075025    0.5300
     10 O10         4.8907    0.0796   53.2316 O.2     1  ZINC001004075025   -0.5200
     11 N11         3.1864    1.3464   52.5894 N.am    1  ZINC001004075025   -0.6500
     12 C12         2.5298    0.6760   51.4570 C.3     1  ZINC001004075025    0.1100
     13 C13         2.0721    2.0592   50.9738 C.3     1  ZINC001004075025   -0.1400
     14 C14         0.6417    2.0925   50.4317 C.3     1  ZINC001004075025    0.1300
     15 N15         0.4408    0.9679   49.5145 N.am    1  ZINC001004075025   -0.7200
     16 C16        -0.5285    1.0254   48.5798 C.2     1  ZINC001004075025    0.6000
     17 O17        -1.2353    2.0115   48.4969 O.2     1  ZINC001004075025   -0.5300
     18 C18        -0.7317   -0.1068   47.6582 C.2     1  ZINC001004075025   -0.2700
     19 C19        -0.4230   -0.1895   46.3223 C.2     1  ZINC001004075025    0.0700
     20 C20         0.2081    0.8834   45.4729 C.3     1  ZINC001004075025   -0.0300
     21 C21         1.7166    0.6428   45.3849 C.3     1  ZINC001004075025   -0.1500
     22 C22        -0.3973    0.8440   44.0683 C.3     1  ZINC001004075025   -0.1500
     23 O23        -0.7933   -1.4093   45.9261 O.3     1  ZINC001004075025    0.1000
     24 N24        -1.2750   -2.0705   46.8130 N.2     1  ZINC001004075025   -0.3500
     25 C25        -1.3093   -1.4292   47.9435 C.2     1  ZINC001004075025    0.0200
     26 C26         2.1866    2.4176   52.4646 C.3     1  ZINC001004075025    0.1100
     27 O27         4.2768    3.3931   54.0869 O.3     1  ZINC001004075025   -0.3400
     28 H28         3.9811    7.2966   53.8842 H       1  ZINC001004075025    0.0600
     29 H29         4.6215    6.3135   52.5457 H       1  ZINC001004075025    0.0500
     30 H30         3.2626    5.7086   53.5232 H       1  ZINC001004075025    0.0600
     31 H31         6.1039    6.1895   54.5296 H       1  ZINC001004075025    0.0800
     32 H32         4.7449    5.5846   55.5071 H       1  ZINC001004075025    0.0700
     33 H33         7.4984    3.7160   54.7130 H       1  ZINC001004075025    0.0900
     34 H34         6.2764    3.7811   56.0287 H       1  ZINC001004075025    0.0900
     35 H35         6.6536    1.6226   53.8751 H       1  ZINC001004075025    0.0800
     36 H36         6.3469    1.4049   55.6308 H       1  ZINC001004075025    0.0900
     37 H37         3.2282    0.1879   50.7773 H       1  ZINC001004075025    0.0900
     38 H38         1.7070    0.0261   51.7551 H       1  ZINC001004075025    0.0900
     39 H39         2.7892    2.5671   50.3290 H       1  ZINC001004075025    0.1100
     40 H40        -0.0627    2.0161   51.2600 H       1  ZINC001004075025    0.0800
     41 H41         0.4765    3.0293   49.8995 H       1  ZINC001004075025    0.0800
     42 H42         1.0055    0.1818   49.5799 H       1  ZINC001004075025    0.4000
     43 H43         0.0214    1.8590   45.9217 H       1  ZINC001004075025    0.1300
     44 H44         1.9033   -0.3327   44.9361 H       1  ZINC001004075025    0.0600
     45 H45         2.1731    1.4188   44.7706 H       1  ZINC001004075025    0.0700
     46 H46         2.1479    0.6709   46.3856 H       1  ZINC001004075025    0.0600
     47 H47        -0.2106   -0.1316   43.6194 H       1  ZINC001004075025    0.0600
     48 H48        -1.4720    1.0155   44.1310 H       1  ZINC001004075025    0.0600
     49 H49         0.0592    1.6200   43.4540 H       1  ZINC001004075025    0.0700
     50 H50        -1.6875   -1.7886   48.8891 H       1  ZINC001004075025    0.2000
     51 H51         1.2722    2.2303   53.0276 H       1  ZINC001004075025    0.0900
     52 H52         2.5949    3.4125   52.6417 H       1  ZINC001004075025    0.0800
@<TRIPOS>BOND
     1     1     2    1
     2     1    28    1
     3     1    29    1
     4     1    30    1
     5     2     3    1
     6     2    31    1
     7     2    32    1
     8     3     4    1
     9     3    27    1
    10     3     5    1
    11     5     6    1
    12     5    33    1
    13     5    34    1
    14     6     7    1
    15     6    35    1
    16     6    36    1
    17     7     8    1
    18     7     9    1
    19     7    27    1
    20     9    10    2
    21     9    11   am
    22    11    26    1
    23    11    12    1
    24    12    13    1
    25    12    37    1
    26    12    38    1
    27    13    14    1
    28    13    26    1
    29    13    39    1
    30    14    15    1
    31    14    40    1
    32    14    41    1
    33    15    16   am
    34    15    42    1
    35    16    17    2
    36    16    18    1
    37    18    25    1
    38    18    19    2
    39    19    20    1
    40    19    23    1
    41    20    21    1
    42    20    22    1
    43    20    43    1
    44    21    44    1
    45    21    45    1
    46    21    46    1
    47    22    47    1
    48    22    48    1
    49    22    49    1
    50    23    24    1
    51    24    25    2
    52    25    50    1
    53    26    51    1
    54    26    52    1
@<TRIPOS>SUBSTRUCTURE
     1 ZINC001004075025        1 TEMP              0 ****  ****    0 ROOT


##########                                Name:    ZINC001579482641
##########                DOCK_Rotatable_Bonds:                   5
##########                         Heavy_Atoms:                  26
##########                    Molecular_Weight:             355.359
##########                DOCK_Rotatable_Bonds:                   5
##########                       Formal_Charge:                0.05
##########                     HBond_Acceptors:                  11
##########                        HBond_Donors:                   1
##########                         Heavy_Atoms:                  26
##########                          Grid_Score:          -29.170343
##########                     Grid_vdw_energy:          -28.807306
##########                      Grid_es_energy:           -0.363036
##########           Internal_energy_repulsive:           13.804828

@<TRIPOS>MOLECULE
ZINC001579482641
 43 46 1 0 0
SMALL
USER_CHARGES


@<TRIPOS>ATOM
      1 C1         -5.7765    2.7615   56.4593 C.3     1  ZINC001579482641    0.0300
      2 O2         -6.7834    1.7338   56.6552 O.3     1  ZINC001579482641   -0.3300
      3 C3         -7.9367    1.8693   55.9720 C.2     1  ZINC001579482641    0.5300
      4 O4         -8.0550    2.7556   55.1496 O.2     1  ZINC001579482641   -0.4900
      5 C5         -9.0575    0.9401   56.2231 C.ar    1  ZINC001579482641    0.0900
      6 C6        -10.1504    0.9284   55.3547 C.ar    1  ZINC001579482641   -0.0800
      7 C7        -11.1971    0.0567   55.5942 C.ar    1  ZINC001579482641   -0.1200
      8 C8        -11.1221   -0.7844   56.7018 C.ar    1  ZINC001579482641    0.1100
      9 N9        -12.1500   -1.6753   56.9795 N.3     1  ZINC001579482641   -0.4600
     10 C10       -13.4529   -0.9697   57.0817 C.3     1  ZINC001579482641    0.0400
     11 C11       -14.4874   -2.1015   56.8597 C.3     1  ZINC001579482641   -0.1100
     12 C12       -13.8108   -2.9823   55.7843 C.3     1  ZINC001579482641   -0.0100
     13 H13       -14.1865   -2.7255   54.7939 H       1  ZINC001579482641    0.0900
     14 C14       -14.0548   -4.4409   56.0735 C.2     1  ZINC001579482641    0.1800
     15 N15       -13.4059   -5.1782   56.9332 N.2     1  ZINC001579482641   -0.2600
     16 N16       -13.8775   -6.3744   56.9206 N.2     1  ZINC001579482641   -0.2900
     17 C17       -14.8488   -6.4547   56.0523 C.2     1  ZINC001579482641    0.1500
     18 N18       -14.9924   -5.2287   55.4937 N.pl3   1  ZINC001579482641   -0.4800
     19 C19       -15.9592   -4.8366   54.4652 C.3     1  ZINC001579482641    0.0700
     20 C20       -12.3087   -2.6589   55.8864 C.3     1  ZINC001579482641    0.0600
     21 C21        -9.9917   -0.7194   57.5341 C.ar    1  ZINC001579482641    0.2300
     22 C22        -9.8976   -1.6091   58.7176 C.2     1  ZINC001579482641    0.2100
     23 N23       -10.8984   -2.0436   59.4578 N.2     1  ZINC001579482641   -0.2600
     24 N24       -10.4070   -2.7902   60.3862 N.pl3   1  ZINC001579482641   -0.2300
     25 N25        -9.1272   -2.8426   60.2581 N.2     1  ZINC001579482641   -0.0500
     26 N26        -8.7787   -2.1325   59.2392 N.2     1  ZINC001579482641   -0.2000
     27 N27        -9.0098    0.1231   57.2688 N.ar    1  ZINC001579482641   -0.4000
     28 H28        -6.1816    3.7286   56.7573 H       1  ZINC001579482641    0.0700
     29 H29        -4.9003    2.5321   57.0657 H       1  ZINC001579482641    0.1100
     30 H30        -5.4918    2.7954   55.4076 H       1  ZINC001579482641    0.0700
     31 H31       -10.1785    1.5938   54.5045 H       1  ZINC001579482641    0.1600
     32 H32       -12.0539    0.0291   54.9371 H       1  ZINC001579482641    0.1600
     33 H33       -13.5739   -0.5263   58.0701 H       1  ZINC001579482641    0.1000
     34 H34       -13.5410   -0.2101   56.3049 H       1  ZINC001579482641    0.0600
     35 H35       -14.6440   -2.6666   57.7786 H       1  ZINC001579482641    0.1000
     36 H36       -15.4292   -1.6961   56.4897 H       1  ZINC001579482641    0.0800
     37 H37       -15.4325   -7.3344   55.8244 H       1  ZINC001579482641    0.2200
     38 H38       -16.8744   -4.4854   54.9419 H       1  ZINC001579482641    0.0800
     39 H39       -15.5373   -4.0375   53.8557 H       1  ZINC001579482641    0.0900
     40 H40       -16.1853   -5.6952   53.8329 H       1  ZINC001579482641    0.0900
     41 H41       -11.9563   -2.2310   54.9478 H       1  ZINC001579482641    0.0600
     42 H42       -11.7487   -3.5648   56.1179 H       1  ZINC001579482641    0.1000
     43 H43       -10.9209   -3.2415   61.0740 H       1  ZINC001579482641    0.4800
@<TRIPOS>BOND
     1     1     2    1
     2     1    28    1
     3     1    29    1
     4     1    30    1
     5     2     3    1
     6     3     4    2
     7     3     5    1
     8     5    27   ar
     9     5     6   ar
    10     6     7   ar
    11     6    31    1
    12     7     8   ar
    13     7    32    1
    14     8     9    1
    15     8    21   ar
    16     9    20    1
    17     9    10    1
    18    10    11    1
    19    10    33    1
    20    10    34    1
    21    11    12    1
    22    11    35    1
    23    11    36    1
    24    12    13    1
    25    12    14    1
    26    12    20    1
    27    14    18    1
    28    14    15    2
    29    15    16    1
    30    16    17    2
    31    17    18    1
    32    17    37    1
    33    18    19    1
    34    19    38    1
    35    19    39    1
    36    19    40    1
    37    20    41    1
    38    20    42    1
    39    21    22    1
    40    21    27   ar
    41    22    26    1
    42    22    23    2
    43    23    24    1
    44    24    25    1
    45    24    43    1
    46    25    26    2
@<TRIPOS>SUBSTRUCTURE
     1 ZINC001579482641        1 TEMP              0 ****  ****    0 ROOT


##########                                Name:    ZINC000573150059
##########                DOCK_Rotatable_Bonds:                   7
##########                         Heavy_Atoms:                  23
##########                    Molecular_Weight:             378.269
##########                DOCK_Rotatable_Bonds:                   7
##########                       Formal_Charge:        -2.98023e-07
##########                     HBond_Acceptors:                   5
##########                        HBond_Donors:                   2
##########                         Heavy_Atoms:                  23
##########                          Grid_Score:          -29.155500
##########                     Grid_vdw_energy:          -27.274256
##########                      Grid_es_energy:           -1.881245
##########           Internal_energy_repulsive:            5.745590

@<TRIPOS>MOLECULE
ZINC000573150059
 43 44 1 0 0
SMALL
USER_CHARGES


@<TRIPOS>ATOM
      1 C1        -11.0813    2.2893   61.7380 C.3     1  ZINC000573150059    0.0300
      2 O2        -11.0200    1.5114   62.9351 O.3     1  ZINC000573150059   -0.3600
      3 C3        -10.0344    0.4772   62.9066 C.3     1  ZINC000573150059    0.0700
      4 H4         -9.0792    0.8944   62.5879 H       1  ZINC000573150059    0.0900
      5 C5         -9.8866   -0.1254   64.3051 C.3     1  ZINC000573150059   -0.1700
      6 C6        -10.4611   -0.5968   61.9393 C.2     1  ZINC000573150059    0.5100
      7 O7        -11.2805   -1.4253   62.2758 O.2     1  ZINC000573150059   -0.4900
      8 N8         -9.9321   -0.6368   60.7004 N.am    1  ZINC000573150059   -0.6700
      9 C9        -10.3283   -1.6340   59.8024 C.ar    1  ZINC000573150059    0.1900
     10 C10        -9.5192   -2.7440   59.5948 C.ar    1  ZINC000573150059   -0.2000
     11 C11        -9.9095   -3.7293   58.7081 C.ar    1  ZINC000573150059   -0.0500
     12 C12       -11.1050   -3.6146   58.0258 C.ar    1  ZINC000573150059   -0.2200
     13 C13       -11.9193   -2.5068   58.2293 C.ar    1  ZINC000573150059    0.2400
     14 N14       -13.1283   -2.3916   57.5395 N.pl3   1  ZINC000573150059   -0.7300
     15 C15       -14.2962   -3.1615   57.9745 C.3     1  ZINC000573150059    0.2000
     16 H16       -14.0615   -3.6852   58.9012 H       1  ZINC000573150059    0.1000
     17 C17       -15.4739   -2.2132   58.2087 C.3     1  ZINC000573150059   -0.1700
     18 C18       -14.6622   -4.1635   56.9100 C.ar    1  ZINC000573150059    0.1400
     19 C19       -14.8478   -3.7392   55.6079 C.ar    1  ZINC000573150059   -0.1600
     20 C20       -15.1839   -4.6688   54.6356 C.ar    1  ZINC000573150059   -0.0400
     21 C21       -15.3216   -5.9968   55.0117 C.ar    1  ZINC000573150059   -0.1500
     22 Br22      -15.7780   -7.3122   53.7320 Br      1  ZINC000573150059   -0.0300
     23 C23       -15.1203   -6.3466   56.3347 C.ar    1  ZINC000573150059    0.1400
     24 N24       -14.7966   -5.4356   57.2311 N.ar    1  ZINC000573150059   -0.4700
     25 C25       -11.5323   -1.5179   59.1226 C.ar    1  ZINC000573150059   -0.1900
     26 H26       -10.1173    2.7682   61.5662 H       1  ZINC000573150059    0.0500
     27 H27       -11.3200    1.6407   60.8951 H       1  ZINC000573150059    0.0400
     28 H28       -11.8531    3.0522   61.8394 H       1  ZINC000573150059    0.0900
     29 H29       -10.8419   -0.5425   64.6237 H       1  ZINC000573150059    0.0700
     30 H30        -9.1348   -0.9142   64.2833 H       1  ZINC000573150059    0.0700
     31 H31        -9.5780    0.6514   65.0046 H       1  ZINC000573150059    0.0700
     32 H32        -9.2767    0.0258   60.4312 H       1  ZINC000573150059    0.4100
     33 H33        -8.5838   -2.8367   60.1267 H       1  ZINC000573150059    0.1200
     34 H34        -9.2783   -4.5910   58.5481 H       1  ZINC000573150059    0.1300
     35 H35       -11.4072   -4.3863   57.3333 H       1  ZINC000573150059    0.1200
     36 H36       -13.1946   -1.8017   56.7722 H       1  ZINC000573150059    0.4100
     37 H37       -15.7085   -1.6895   57.2820 H       1  ZINC000573150059    0.0600
     38 H38       -16.3428   -2.7861   58.5323 H       1  ZINC000573150059    0.0700
     39 H39       -15.2091   -1.4884   58.9786 H       1  ZINC000573150059    0.0700
     40 H40       -14.7325   -2.6966   55.3510 H       1  ZINC000573150059    0.1500
     41 H41       -15.3353   -4.3660   53.6100 H       1  ZINC000573150059    0.1500
     42 H42       -15.2258   -7.3783   56.6361 H       1  ZINC000573150059    0.1700
     43 H43       -12.1634   -0.6563   59.2829 H       1  ZINC000573150059    0.1400
@<TRIPOS>BOND
     1     1     2    1
     2     1    26    1
     3     1    27    1
     4     1    28    1
     5     2     3    1
     6     3     4    1
     7     3     5    1
     8     3     6    1
     9     5    29    1
    10     5    30    1
    11     5    31    1
    12     6     7    2
    13     6     8   am
    14     8     9    1
    15     8    32    1
    16     9    25   ar
    17     9    10   ar
    18    10    11   ar
    19    10    33    1
    20    11    12   ar
    21    11    34    1
    22    12    13   ar
    23    12    35    1
    24    13    14    1
    25    13    25   ar
    26    14    15    1
    27    14    36    1
    28    15    16    1
    29    15    17    1
    30    15    18    1
    31    17    37    1
    32    17    38    1
    33    17    39    1
    34    18    24   ar
    35    18    19   ar
    36    19    20   ar
    37    19    40    1
    38    20    21   ar
    39    20    41    1
    40    21    22    1
    41    21    23   ar
    42    23    24   ar
    43    23    42    1
    44    25    43    1
@<TRIPOS>SUBSTRUCTURE
     1 ZINC000573150059        1 TEMP              0 ****  ****    0 ROOT


##########                                Name:    ZINC000047262406
##########                DOCK_Rotatable_Bonds:                   6
##########                         Heavy_Atoms:                  28
##########                    Molecular_Weight:             417.919
##########                DOCK_Rotatable_Bonds:                   6
##########                       Formal_Charge:          -0.0100002
##########                     HBond_Acceptors:                   9
##########                        HBond_Donors:                   1
##########                         Heavy_Atoms:                  28
##########                          Grid_Score:          -29.127386
##########                     Grid_vdw_energy:          -27.591097
##########                      Grid_es_energy:           -1.536289
##########           Internal_energy_repulsive:           16.269350

@<TRIPOS>MOLECULE
ZINC000047262406
 48 51 1 0 0
SMALL
USER_CHARGES


@<TRIPOS>ATOM
      1 C1         -9.0372   -0.9604   62.4898 C.3     1  ZINC000047262406   -0.1500
      2 C2         -9.9305   -0.1392   61.5577 C.3     1  ZINC000047262406    0.1800
      3 H3         -9.3257    0.6010   61.0338 H       1  ZINC000047262406    0.0800
      4 C4        -10.9916    0.5609   62.3669 C.2     1  ZINC000047262406    0.1700
      5 N5        -12.0990    0.0315   62.8048 N.2     1  ZINC000047262406   -0.2500
      6 N6        -12.7700    0.9136   63.4582 N.2     1  ZINC000047262406   -0.2700
      7 C7        -12.1061    2.0491   63.4598 C.2     1  ZINC000047262406    0.2400
      8 C8        -12.5273    3.3056   64.0973 C.2     1  ZINC000047262406   -0.1500
      9 C9        -11.8249    4.4718   64.0793 C.2     1  ZINC000047262406   -0.0600
     10 C10       -12.4298    5.5119   64.7498 C.2     1  ZINC000047262406   -0.1400
     11 C11       -13.6068    5.2185   65.3122 C.2     1  ZINC000047262406   -0.1900
     12 S12       -14.0211    3.5394   64.9961 S.3     1  ZINC000047262406    0.1700
     13 O13       -10.9637    1.8436   62.7724 O.3     1  ZINC000047262406   -0.2200
     14 N14       -10.5688   -1.0307   60.5802 N.3     1  ZINC000047262406   -0.5200
     15 C15        -9.5631   -1.7256   59.7665 C.3     1  ZINC000047262406    0.0500
     16 C16       -10.2545   -2.7493   58.8631 C.3     1  ZINC000047262406   -0.1000
     17 C17       -11.2599   -2.0291   57.9601 C.3     1  ZINC000047262406   -0.1100
     18 C18       -11.9870   -3.0390   57.1102 C.2     1  ZINC000047262406    0.5100
     19 O19       -11.5101   -3.3991   56.0549 O.2     1  ZINC000047262406   -0.4600
     20 N20       -13.1673   -3.5422   57.5230 N.am    1  ZINC000047262406   -0.6600
     21 C21       -13.8401   -4.4769   56.7364 C.ar    1  ZINC000047262406    0.3600
     22 C22       -13.7236   -5.8312   57.0260 C.ar    1  ZINC000047262406   -0.2000
     23 C23       -14.3967   -6.7486   56.2380 C.ar    1  ZINC000047262406   -0.0400
     24 C24       -15.1664   -6.2768   55.1828 C.ar    1  ZINC000047262406   -0.1200
     25 Cl25      -16.0315   -7.3846   54.1638 Cl      1  ZINC000047262406   -0.0500
     26 C26       -15.2367   -4.9156   54.9529 C.ar    1  ZINC000047262406    0.1500
     27 N27       -14.5876   -4.0653   55.7246 N.ar    1  ZINC000047262406   -0.4600
     28 C28       -12.2672   -1.2739   58.8318 C.3     1  ZINC000047262406   -0.1100
     29 C29       -11.5174   -0.2932   59.7361 C.3     1  ZINC000047262406    0.0600
     30 H30        -8.2698   -1.4669   61.9045 H       1  ZINC000047262406    0.0800
     31 H31        -8.5636   -0.2990   63.2152 H       1  ZINC000047262406    0.0700
     32 H32        -9.6421   -1.7006   63.0137 H       1  ZINC000047262406    0.0800
     33 H33       -10.8722    4.5729   63.5808 H       1  ZINC000047262406    0.1600
     34 H34       -11.9850    6.4938   64.8169 H       1  ZINC000047262406    0.1600
     35 H35       -14.2152    5.9118   65.8740 H       1  ZINC000047262406    0.1800
     36 H36        -9.0293   -1.0008   59.1517 H       1  ZINC000047262406    0.0400
     37 H37        -8.8568   -2.2370   60.4205 H       1  ZINC000047262406    0.0900
     38 H38        -9.5094   -3.2538   58.2480 H       1  ZINC000047262406    0.0800
     39 H39       -10.7772   -3.4825   59.4773 H       1  ZINC000047262406    0.0900
     40 H40       -10.7326   -1.3243   57.3174 H       1  ZINC000047262406    0.1000
     41 H41       -13.5487   -3.2542   58.3670 H       1  ZINC000047262406    0.4200
     42 H42       -13.1158   -6.1633   57.8546 H       1  ZINC000047262406    0.1500
     43 H43       -14.3246   -7.8073   56.4390 H       1  ZINC000047262406    0.1500
     44 H44       -15.8336   -4.5433   54.1333 H       1  ZINC000047262406    0.1700
     45 H45       -12.9600   -0.7245   58.1944 H       1  ZINC000047262406    0.0700
     46 H46       -12.8215   -1.9840   59.4457 H       1  ZINC000047262406    0.0800
     47 H47       -12.2306    0.2360   60.3681 H       1  ZINC000047262406    0.0700
     48 H48       -10.9744    0.4250   59.1216 H       1  ZINC000047262406    0.0400
@<TRIPOS>BOND
     1     1     2    1
     2     1    30    1
     3     1    31    1
     4     1    32    1
     5     2     3    1
     6     2     4    1
     7     2    14    1
     8     4    13    1
     9     4     5    2
    10     5     6    1
    11     6     7    2
    12     7     8    1
    13     7    13    1
    14     8    12    1
    15     8     9    2
    16     9    10    1
    17     9    33    1
    18    10    11    2
    19    10    34    1
    20    11    12    1
    21    11    35    1
    22    14    29    1
    23    14    15    1
    24    15    16    1
    25    15    36    1
    26    15    37    1
    27    16    17    1
    28    16    38    1
    29    16    39    1
    30    17    18    1
    31    17    28    1
    32    17    40    1
    33    18    19    2
    34    18    20   am
    35    20    21    1
    36    20    41    1
    37    21    27   ar
    38    21    22   ar
    39    22    23   ar
    40    22    42    1
    41    23    24   ar
    42    23    43    1
    43    24    25    1
    44    24    26   ar
    45    26    27   ar
    46    26    44    1
    47    28    29    1
    48    28    45    1
    49    28    46    1
    50    29    47    1
    51    29    48    1
@<TRIPOS>SUBSTRUCTURE
     1 ZINC000047262406        1 TEMP              0 ****  ****    0 ROOT


##########                                Name:    ZINC001490207225
##########                DOCK_Rotatable_Bonds:                   7
##########                         Heavy_Atoms:                  24
##########                    Molecular_Weight:             334.378
##########                DOCK_Rotatable_Bonds:                   7
##########                       Formal_Charge:           -0.010001
##########                     HBond_Acceptors:                   9
##########                        HBond_Donors:                   3
##########                         Heavy_Atoms:                  24
##########                          Grid_Score:          -29.121292
##########                     Grid_vdw_energy:          -25.473976
##########                      Grid_es_energy:           -3.647316
##########           Internal_energy_repulsive:            5.575752

@<TRIPOS>MOLECULE
ZINC001490207225
 46 48 1 0 0
SMALL
USER_CHARGES


@<TRIPOS>ATOM
      1 C1        -18.6143   -2.5642   57.7202 C.3     1  ZINC001490207225    0.0900
      2 N2        -17.1795   -2.3222   57.5498 N.pl3   1  ZINC001490207225   -0.3600
      3 C3        -16.1912   -3.0412   58.1056 C.2     1  ZINC001490207225    0.1300
      4 C4        -14.9955   -2.4869   57.6948 C.2     1  ZINC001490207225   -0.3000
      5 C5        -13.6446   -2.9511   58.0595 C.2     1  ZINC001490207225    0.6200
      6 O6        -13.0693   -3.7598   57.3569 O.2     1  ZINC001490207225   -0.5400
      7 N7        -13.0472   -2.4791   59.1717 N.am    1  ZINC001490207225   -0.6200
      8 C8        -13.6067   -1.5083   60.1263 C.3     1  ZINC001490207225    0.1100
      9 C9        -12.4149   -0.7167   60.6895 C.3     1  ZINC001490207225   -0.1100
     10 H10       -12.3384    0.2772   60.2486 H       1  ZINC001490207225    0.1000
     11 C11       -12.5275   -0.6619   62.2276 C.3     1  ZINC001490207225    0.1000
     12 N12       -11.1558   -0.9351   62.7151 N.am    1  ZINC001490207225   -0.6200
     13 C13       -10.5130   -0.3511   63.7457 C.2     1  ZINC001490207225    0.5300
     14 O14       -11.0667    0.5098   64.3963 O.2     1  ZINC001490207225   -0.5300
     15 C15        -9.1063   -0.7679   64.0899 C.3     1  ZINC001490207225    0.1200
     16 N16        -8.6457   -0.0142   65.2587 N.am    1  ZINC001490207225   -0.7400
     17 C17        -8.5836   -0.6125   66.4647 C.2     1  ZINC001490207225    0.7100
     18 N18        -8.1584    0.0804   67.5397 N.am    1  ZINC001490207225   -0.8600
     19 O19        -8.9110   -1.7774   66.5831 O.2     1  ZINC001490207225   -0.5900
     20 C20       -10.6511   -1.9957   61.8129 C.3     1  ZINC001490207225    0.1100
     21 C21       -11.1676   -1.5881   60.3895 C.3     1  ZINC001490207225   -0.0800
     22 C22       -10.0972   -0.8569   59.5769 C.3     1  ZINC001490207225   -0.1300
     23 C23       -11.7106   -2.8387   59.6726 C.3     1  ZINC001490207225    0.1000
     24 C24       -15.3088   -1.3915   56.8592 C.2     1  ZINC001490207225    0.0700
     25 N25       -16.6079   -1.3063   56.7755 N.2     1  ZINC001490207225   -0.2900
     26 H26       -18.9613   -3.2500   56.9474 H       1  ZINC001490207225    0.0800
     27 H27       -18.7948   -3.0019   58.7020 H       1  ZINC001490207225    0.0900
     28 H28       -19.1541   -1.6209   57.6381 H       1  ZINC001490207225    0.1000
     29 H29       -16.3098   -3.8961   58.7549 H       1  ZINC001490207225    0.1900
     30 H30       -14.2949   -0.8350   59.6151 H       1  ZINC001490207225    0.0900
     31 H31       -14.1229   -2.0307   60.9318 H       1  ZINC001490207225    0.0800
     32 H32       -12.8549    0.3267   62.5494 H       1  ZINC001490207225    0.0900
     33 H33       -13.2170   -1.4264   62.5855 H       1  ZINC001490207225    0.0900
     34 H34        -9.0880   -1.8343   64.3150 H       1  ZINC001490207225    0.1000
     35 H35        -8.4497   -0.5638   63.2441 H       1  ZINC001490207225    0.1000
     36 H36        -8.3856    0.9155   65.1646 H       1  ZINC001490207225    0.4100
     37 H37        -8.1126   -0.3506   68.4075 H       1  ZINC001490207225    0.4000
     38 H38        -7.8983    1.0101   67.4456 H       1  ZINC001490207225    0.4200
     39 H39        -9.5613   -2.0147   61.8215 H       1  ZINC001490207225    0.0900
     40 H40       -11.0510   -2.9662   62.1067 H       1  ZINC001490207225    0.0800
     41 H41        -9.2378   -1.5122   59.4353 H       1  ZINC001490207225    0.0700
     42 H42       -10.5056   -0.5782   58.6055 H       1  ZINC001490207225    0.0600
     43 H43        -9.7856    0.0407   60.1110 H       1  ZINC001490207225    0.0600
     44 H44       -11.8013   -3.6645   60.3782 H       1  ZINC001490207225    0.0800
     45 H45       -11.0479   -3.1174   58.8532 H       1  ZINC001490207225    0.0900
     46 H46       -14.5975   -0.7414   56.3716 H       1  ZINC001490207225    0.2000
@<TRIPOS>BOND
     1     1     2    1
     2     1    26    1
     3     1    27    1
     4     1    28    1
     5     2    25    1
     6     2     3    1
     7     3     4    2
     8     3    29    1
     9     4     5    1
    10     4    24    1
    11     5     6    2
    12     5     7   am
    13     7    23    1
    14     7     8    1
    15     8     9    1
    16     8    30    1
    17     8    31    1
    18     9    10    1
    19     9    21    1
    20     9    11    1
    21    11    12    1
    22    11    32    1
    23    11    33    1
    24    12    13   am
    25    12    20    1
    26    13    14    2
    27    13    15    1
    28    15    16    1
    29    15    34    1
    30    15    35    1
    31    16    17   am
    32    16    36    1
    33    17    18   am
    34    17    19    2
    35    18    37    1
    36    18    38    1
    37    20    21    1
    38    20    39    1
    39    20    40    1
    40    21    22    1
    41    21    23    1
    42    22    41    1
    43    22    42    1
    44    22    43    1
    45    23    44    1
    46    23    45    1
    47    24    25    2
    48    24    46    1
@<TRIPOS>SUBSTRUCTURE
     1 ZINC001490207225        1 TEMP              0 ****  ****    0 ROOT


##########                                Name:    ZINC000498646479
##########                DOCK_Rotatable_Bonds:                   7
##########                         Heavy_Atoms:                  29
##########                    Molecular_Weight:              407.58
##########                DOCK_Rotatable_Bonds:                   7
##########                       Formal_Charge:          -0.0199997
##########                     HBond_Acceptors:                   5
##########                        HBond_Donors:                   0
##########                         Heavy_Atoms:                  29
##########                          Grid_Score:          -29.107454
##########                     Grid_vdw_energy:          -28.607061
##########                      Grid_es_energy:           -0.500394
##########           Internal_energy_repulsive:           27.283459

@<TRIPOS>MOLECULE
ZINC000498646479
 58 61 1 0 0
SMALL
USER_CHARGES


@<TRIPOS>ATOM
      1 C1         -7.4567    0.6756   51.8598 C.3     1  ZINC000498646479   -0.1500
      2 C2         -6.8559    1.7181   52.8049 C.3     1  ZINC000498646479   -0.0600
      3 C3         -7.4835    1.5810   54.1681 C.2     1  ZINC000498646479   -0.1700
      4 C4         -6.8829    1.8695   55.3236 C.2     1  ZINC000498646479   -0.1400
      5 C5         -7.6590    1.6648   56.4514 C.2     1  ZINC000498646479   -0.1300
      6 C6         -8.8899    1.2101   56.2117 C.2     1  ZINC000498646479   -0.1900
      7 C7         -9.9251    0.9091   57.2646 C.3     1  ZINC000498646479    0.1300
      8 N8        -11.1614    0.4486   56.6184 N.3     1  ZINC000498646479   -0.5300
      9 C9        -12.3321    0.7322   57.4592 C.3     1  ZINC000498646479    0.0400
     10 C10       -13.6092    0.4051   56.6780 C.3     1  ZINC000498646479    0.1200
     11 N11       -13.5158   -0.9787   56.1884 N.am    1  ZINC000498646479   -0.6100
     12 C12       -14.5130   -1.8586   56.4070 C.2     1  ZINC000498646479    0.5200
     13 O13       -15.5041   -1.5132   57.0146 O.2     1  ZINC000498646479   -0.5400
     14 C14       -14.3964   -3.2717   55.8964 C.3     1  ZINC000498646479   -0.1000
     15 H15       -13.9475   -3.2633   54.9031 H       1  ZINC000498646479    0.0900
     16 C16       -13.5167   -4.0865   56.8468 C.3     1  ZINC000498646479   -0.1500
     17 C17       -15.7879   -3.9034   55.8218 C.3     1  ZINC000498646479   -0.0600
     18 C18       -15.7099   -5.2019   55.0609 C.ar    1  ZINC000498646479   -0.1200
     19 C19       -15.9609   -5.2389   53.6775 C.ar    1  ZINC000498646479   -0.0200
     20 C20       -16.2910   -4.0887   52.9462 C.ar    1  ZINC000498646479   -0.1200
     21 C21       -16.5227   -4.1889   51.6077 C.ar    1  ZINC000498646479   -0.1000
     22 C22       -16.4374   -5.4169   50.9537 C.ar    1  ZINC000498646479   -0.1200
     23 C23       -16.1194   -6.5541   51.6319 C.ar    1  ZINC000498646479   -0.0900
     24 C24       -15.8733   -6.4900   53.0126 C.ar    1  ZINC000498646479   -0.1100
     25 C25       -15.5410   -7.6282   53.7643 C.ar    1  ZINC000498646479    0.1400
     26 N26       -15.3190   -7.5186   55.0534 N.ar    1  ZINC000498646479   -0.4800
     27 C27       -15.3892   -6.3623   55.6980 C.ar    1  ZINC000498646479    0.0800
     28 C28       -12.3054   -1.3766   55.4536 C.3     1  ZINC000498646479    0.1100
     29 C29       -11.0797   -0.9792   56.2829 C.3     1  ZINC000498646479    0.0400
     30 S30        -9.1226    1.0234   54.4783 S.3     1  ZINC000498646479    0.1300
     31 H31        -7.0028    0.7746   50.8737 H       1  ZINC000498646479    0.0600
     32 H32        -7.2627   -0.3235   52.2503 H       1  ZINC000498646479    0.0600
     33 H33        -8.5325    0.8327   51.7819 H       1  ZINC000498646479    0.0600
     34 H34        -5.7802    1.5609   52.8826 H       1  ZINC000498646479    0.0800
     35 H35        -7.0499    2.7170   52.4143 H       1  ZINC000498646479    0.0700
     36 H36        -5.8679    2.2347   55.3755 H       1  ZINC000498646479    0.1400
     37 H37        -7.2953    1.8583   57.4498 H       1  ZINC000498646479    0.1300
     38 H38        -9.5512    0.1307   57.9298 H       1  ZINC000498646479    0.0900
     39 H39       -10.1306    1.8114   57.8407 H       1  ZINC000498646479    0.0500
     40 H40       -12.2899    0.1201   58.3600 H       1  ZINC000498646479    0.0400
     41 H41       -12.3347    1.7867   57.7352 H       1  ZINC000498646479    0.1000
     42 H42       -14.4747    0.5040   57.3332 H       1  ZINC000498646479    0.1000
     43 H43       -13.7063    1.0867   55.8330 H       1  ZINC000498646479    0.0800
     44 H44       -13.3634   -5.0839   56.4347 H       1  ZINC000498646479    0.0700
     45 H45       -12.5534   -3.5903   56.9653 H       1  ZINC000498646479    0.0600
     46 H46       -14.0065   -4.1657   57.8172 H       1  ZINC000498646479    0.0700
     47 H47       -16.1547   -4.0947   56.8303 H       1  ZINC000498646479    0.0900
     48 H48       -16.4689   -3.2230   55.3104 H       1  ZINC000498646479    0.0800
     49 H49       -16.3612   -3.1310   53.4404 H       1  ZINC000498646479    0.1400
     50 H50       -16.7768   -3.3032   51.0443 H       1  ZINC000498646479    0.1300
     51 H51       -16.6269   -5.4673   49.8918 H       1  ZINC000498646479    0.1300
     52 H52       -16.0571   -7.4983   51.1116 H       1  ZINC000498646479    0.1300
     53 H53       -15.4683   -8.5922   53.2828 H       1  ZINC000498646479    0.1600
     54 H54       -15.1948   -6.3411   56.7602 H       1  ZINC000498646479    0.1500
     55 H55       -12.3090   -2.4556   55.2992 H       1  ZINC000498646479    0.0900
     56 H56       -12.2773   -0.8663   54.4908 H       1  ZINC000498646479    0.0800
     57 H57       -10.1740   -1.1661   55.7059 H       1  ZINC000498646479    0.0900
     58 H58       -11.0550   -1.5676   57.2002 H       1  ZINC000498646479    0.0400
@<TRIPOS>BOND
     1     1     2    1
     2     1    31    1
     3     1    32    1
     4     1    33    1
     5     2     3    1
     6     2    34    1
     7     2    35    1
     8     3    30    1
     9     3     4    2
    10     4     5    1
    11     4    36    1
    12     5     6    2
    13     5    37    1
    14     6     7    1
    15     6    30    1
    16     7     8    1
    17     7    38    1
    18     7    39    1
    19     8    29    1
    20     8     9    1
    21     9    10    1
    22     9    40    1
    23     9    41    1
    24    10    11    1
    25    10    42    1
    26    10    43    1
    27    11    12   am
    28    11    28    1
    29    12    13    2
    30    12    14    1
    31    14    15    1
    32    14    16    1
    33    14    17    1
    34    16    44    1
    35    16    45    1
    36    16    46    1
    37    17    18    1
    38    17    47    1
    39    17    48    1
    40    18    27   ar
    41    18    19   ar
    42    19    24   ar
    43    19    20   ar
    44    20    21   ar
    45    20    49    1
    46    21    22   ar
    47    21    50    1
    48    22    23   ar
    49    22    51    1
    50    23    24   ar
    51    23    52    1
    52    24    25   ar
    53    25    26   ar
    54    25    53    1
    55    26    27   ar
    56    27    54    1
    57    28    29    1
    58    28    55    1
    59    28    56    1
    60    29    57    1
    61    29    58    1
@<TRIPOS>SUBSTRUCTURE
     1 ZINC000498646479        1 TEMP              0 ****  ****    0 ROOT


##########                                Name:    ZINC001340305486
##########                DOCK_Rotatable_Bonds:                   8
##########                         Heavy_Atoms:                  27
##########                    Molecular_Weight:             378.431
##########                DOCK_Rotatable_Bonds:                   8
##########                       Formal_Charge:          0.00999955
##########                     HBond_Acceptors:                  10
##########                        HBond_Donors:                   2
##########                         Heavy_Atoms:                  27
##########                          Grid_Score:          -29.105385
##########                     Grid_vdw_energy:          -29.105999
##########                      Grid_es_energy:            0.000615
##########           Internal_energy_repulsive:           12.109960

@<TRIPOS>MOLECULE
ZINC001340305486
 53 55 1 0 0
SMALL
USER_CHARGES


@<TRIPOS>ATOM
      1 C1         -9.3542   -1.9849   59.5061 C.3     1  ZINC001340305486    0.0900
      2 N2        -10.7897   -1.7382   59.6625 N.am    1  ZINC001340305486   -0.7300
      3 C3        -11.4482   -2.2415   60.7253 C.2     1  ZINC001340305486    0.5200
      4 O4        -10.8525   -2.8999   61.5515 O.2     1  ZINC001340305486   -0.5100
      5 C5        -12.9246   -1.9862   60.8871 C.3     1  ZINC001340305486    0.0600
      6 H6        -13.3524   -2.7344   61.5543 H       1  ZINC001340305486    0.0900
      7 C7        -13.6112   -2.0678   59.5190 C.3     1  ZINC001340305486    0.0900
      8 N8        -15.0084   -1.6329   59.6743 N.am    1  ZINC001340305486   -0.5800
      9 C9        -16.0247   -2.3820   59.2026 C.2     1  ZINC001340305486    0.5100
     10 O10       -17.1703   -2.0058   59.3399 O.2     1  ZINC001340305486   -0.5200
     11 C11       -15.7409   -3.6756   58.5101 C.2     1  ZINC001340305486    0.5200
     12 O12       -16.1349   -4.7190   58.9885 O.2     1  ZINC001340305486   -0.5000
     13 N13       -15.0474   -3.6835   57.3546 N.am    1  ZINC001340305486   -0.6900
     14 C14       -14.7677   -4.9519   56.6768 C.3     1  ZINC001340305486    0.1200
     15 C15       -14.5619   -4.6968   55.1823 C.3     1  ZINC001340305486   -0.0400
     16 C16       -15.1645   -5.8296   54.3918 C.2     1  ZINC001340305486    0.1700
     17 N17       -14.8665   -7.0973   54.5017 N.2     1  ZINC001340305486   -0.2800
     18 N18       -15.5787   -7.7835   53.6774 N.2     1  ZINC001340305486   -0.2900
     19 C19       -16.3635   -6.9857   53.0109 C.2     1  ZINC001340305486    0.1900
     20 C20       -17.3785   -7.3707   51.9660 C.3     1  ZINC001340305486   -0.0400
     21 C21       -17.2302   -6.4414   50.7575 C.3     1  ZINC001340305486   -0.1200
     22 C22       -18.0936   -5.1997   50.9586 C.3     1  ZINC001340305486   -0.1300
     23 C23       -18.1554   -4.8246   52.4385 C.3     1  ZINC001340305486   -0.1400
     24 C24       -16.7486   -4.5000   52.9488 C.3     1  ZINC001340305486    0.1000
     25 N25       -16.1184   -5.7258   53.4403 N.pl3   1  ZINC001340305486   -0.4600
     26 C26       -15.2632   -0.3558   60.3594 C.3     1  ZINC001340305486    0.0200
     27 C27       -14.4960   -0.3576   61.6866 C.3     1  ZINC001340305486    0.0500
     28 O28       -13.1261   -0.6830   61.4391 O.3     1  ZINC001340305486   -0.3500
     29 H29        -8.8199   -1.5771   60.3642 H       1  ZINC001340305486    0.0600
     30 H30        -9.1747   -3.0582   59.4430 H       1  ZINC001340305486    0.0600
     31 H31        -8.9998   -1.5030   58.5949 H       1  ZINC001340305486    0.0800
     32 H32       -11.2664   -1.2127   59.0011 H       1  ZINC001340305486    0.4000
     33 H33       -13.0998   -1.4145   58.8120 H       1  ZINC001340305486    0.0900
     34 H34       -13.5847   -3.0951   59.1556 H       1  ZINC001340305486    0.1100
     35 H35       -14.7335   -2.8494   56.9716 H       1  ZINC001340305486    0.4200
     36 H36       -13.8659   -5.3972   57.0970 H       1  ZINC001340305486    0.0900
     37 H37       -15.6080   -5.6318   56.8169 H       1  ZINC001340305486    0.0800
     38 H38       -15.0462   -3.7611   54.9033 H       1  ZINC001340305486    0.0900
     39 H39       -13.4950   -4.6317   54.9684 H       1  ZINC001340305486    0.1100
     40 H40       -17.2093   -8.4018   51.6559 H       1  ZINC001340305486    0.1000
     41 H41       -18.3823   -7.2734   52.3797 H       1  ZINC001340305486    0.0900
     42 H42       -16.1865   -6.1449   50.6535 H       1  ZINC001340305486    0.0600
     43 H43       -17.5504   -6.9641   49.8562 H       1  ZINC001340305486    0.0800
     44 H44       -17.6673   -4.3700   50.3947 H       1  ZINC001340305486    0.0700
     45 H45       -19.1018   -5.3999   50.5959 H       1  ZINC001340305486    0.0800
     46 H46       -18.7971   -3.9525   52.5651 H       1  ZINC001340305486    0.0900
     47 H47       -18.5637   -5.6598   53.0075 H       1  ZINC001340305486    0.0800
     48 H48       -16.1545   -4.0821   52.1361 H       1  ZINC001340305486    0.0900
     49 H49       -16.8144   -3.7762   53.7611 H       1  ZINC001340305486    0.1000
     50 H50       -14.9181    0.4699   59.7370 H       1  ZINC001340305486    0.0800
     51 H51       -16.3306   -0.2494   60.5525 H       1  ZINC001340305486    0.1700
     52 H52       -14.5587    0.6294   62.1447 H       1  ZINC001340305486    0.1200
     53 H53       -14.9302   -1.0994   62.3570 H       1  ZINC001340305486    0.0600
@<TRIPOS>BOND
     1     1     2    1
     2     1    29    1
     3     1    30    1
     4     1    31    1
     5     2     3   am
     6     2    32    1
     7     3     4    2
     8     3     5    1
     9     5     6    1
    10     5    28    1
    11     5     7    1
    12     7     8    1
    13     7    33    1
    14     7    34    1
    15     8     9   am
    16     8    26    1
    17     9    10    2
    18     9    11    1
    19    11    12    2
    20    11    13   am
    21    13    14    1
    22    13    35    1
    23    14    15    1
    24    14    36    1
    25    14    37    1
    26    15    16    1
    27    15    38    1
    28    15    39    1
    29    16    25    1
    30    16    17    2
    31    17    18    1
    32    18    19    2
    33    19    25    1
    34    19    20    1
    35    20    21    1
    36    20    40    1
    37    20    41    1
    38    21    22    1
    39    21    42    1
    40    21    43    1
    41    22    23    1
    42    22    44    1
    43    22    45    1
    44    23    24    1
    45    23    46    1
    46    23    47    1
    47    24    25    1
    48    24    48    1
    49    24    49    1
    50    26    27    1
    51    26    50    1
    52    26    51    1
    53    27    28    1
    54    27    52    1
    55    27    53    1
@<TRIPOS>SUBSTRUCTURE
     1 ZINC001340305486        1 TEMP              0 ****  ****    0 ROOT


##########                                Name:    ZINC000438893617
##########                DOCK_Rotatable_Bonds:                   5
##########                         Heavy_Atoms:                  29
##########                    Molecular_Weight:             412.596
##########                DOCK_Rotatable_Bonds:                   5
##########                       Formal_Charge:           0.0600001
##########                     HBond_Acceptors:                   5
##########                        HBond_Donors:                   0
##########                         Heavy_Atoms:                  29
##########                          Grid_Score:          -29.091747
##########                     Grid_vdw_energy:          -28.248590
##########                      Grid_es_energy:           -0.843156
##########           Internal_energy_repulsive:          169.374863

@<TRIPOS>MOLECULE
ZINC000438893617
 61 66 1 0 0
SMALL
USER_CHARGES


@<TRIPOS>ATOM
      1 C1         -6.7440   -0.2813   51.3132 C.3     1  ZINC000438893617   -0.1000
      2 C2         -6.6081    1.0239   52.0541 C.2     1  ZINC000438893617   -0.0900
      3 C3         -7.6049    1.5518   52.7661 C.2     1  ZINC000438893617   -0.1600
      4 C4         -8.9728    0.9414   52.9314 C.3     1  ZINC000438893617   -0.0400
      5 H5         -9.2709    0.2383   52.1536 H       1  ZINC000438893617    0.1400
      6 C6        -10.0658    1.8143   53.5513 C.3     1  ZINC000438893617   -0.1400
      7 C7         -9.4553    0.6646   54.3566 C.3     1  ZINC000438893617   -0.1800
      8 H8         -8.7837    0.9243   55.1748 H       1  ZINC000438893617    0.1300
      9 C9        -10.3071   -0.5588   54.5782 C.2     1  ZINC000438893617    0.5500
     10 O10       -10.3930   -1.4029   53.7116 O.2     1  ZINC000438893617   -0.5300
     11 N11       -10.9731   -0.7149   55.7395 N.am    1  ZINC000438893617   -0.6100
     12 C12       -11.8038   -1.9047   55.9712 C.3     1  ZINC000438893617    0.0900
     13 C13       -11.3370   -2.5840   57.2647 C.3     1  ZINC000438893617    0.1000
     14 N14       -11.2450   -1.5674   58.3221 N.am    1  ZINC000438893617   -0.6100
     15 C15       -11.9102   -1.7239   59.4838 C.2     1  ZINC000438893617    0.5300
     16 O16       -12.5925   -2.7104   59.6637 O.2     1  ZINC000438893617   -0.5300
     17 C17       -11.8063   -0.6731   60.5590 C.3     1  ZINC000438893617   -0.0700
     18 C18       -12.6106   -1.1148   61.7833 C.3     1  ZINC000438893617   -0.1100
     19 C19       -12.5050   -0.0480   62.8749 C.3     1  ZINC000438893617   -0.0800
     20 C20       -13.0623    1.2764   62.3492 C.3     1  ZINC000438893617   -0.1100
     21 C21       -12.2579    1.7181   61.1250 C.3     1  ZINC000438893617   -0.0800
     22 C22       -10.7908    1.9023   61.5180 C.3     1  ZINC000438893617   -0.1100
     23 C23       -10.2335    0.5778   62.0436 C.3     1  ZINC000438893617   -0.0900
     24 C24       -11.0379    0.1361   63.2680 C.3     1  ZINC000438893617   -0.1100
     25 C25       -10.3391   -0.4891   60.9521 C.3     1  ZINC000438893617   -0.0900
     26 C26       -12.3635    0.6513   60.0334 C.3     1  ZINC000438893617   -0.1200
     27 C27       -10.4143   -0.3775   58.0904 C.3     1  ZINC000438893617    0.0700
     28 C28       -10.8766    0.2990   56.7990 C.3     1  ZINC000438893617    0.1000
     29 S29        -7.0784    3.0692   53.4830 S.3     1  ZINC000438893617    0.1000
     30 C30        -5.4872    2.8961   52.7540 C.2     1  ZINC000438893617   -0.2100
     31 C31        -5.4376    1.7628   52.0523 C.2     1  ZINC000438893617   -0.1300
     32 H32        -6.4549   -1.1029   51.9685 H       1  ZINC000438893617    0.0700
     33 H33        -7.7791   -0.4145   50.9986 H       1  ZINC000438893617    0.0700
     34 H34        -6.0962   -0.2706   50.4366 H       1  ZINC000438893617    0.0700
     35 H35        -9.7955    2.8301   53.8396 H       1  ZINC000438893617    0.1100
     36 H36       -11.0831    1.6852   53.1816 H       1  ZINC000438893617    0.1100
     37 H37       -12.8481   -1.6083   56.0700 H       1  ZINC000438893617    0.0800
     38 H38       -11.6946   -2.5957   55.1354 H       1  ZINC000438893617    0.1000
     39 H39       -12.0556   -3.3502   57.5555 H       1  ZINC000438893617    0.1100
     40 H40       -10.3585   -3.0375   57.1072 H       1  ZINC000438893617    0.0700
     41 H41       -13.6559   -1.2459   61.5033 H       1  ZINC000438893617    0.0800
     42 H42       -12.2136   -2.0584   62.1578 H       1  ZINC000438893617    0.0700
     43 H43       -13.0782   -0.3627   63.7471 H       1  ZINC000438893617    0.0800
     44 H44       -14.1075    1.1453   62.0692 H       1  ZINC000438893617    0.0600
     45 H45       -12.9871    2.0364   63.1270 H       1  ZINC000438893617    0.0700
     46 H46       -12.6549    2.6616   60.7506 H       1  ZINC000438893617    0.0800
     47 H47       -10.2177    2.2169   60.6459 H       1  ZINC000438893617    0.0600
     48 H48       -10.7155    2.6623   62.2956 H       1  ZINC000438893617    0.0700
     49 H49        -9.1883    0.7089   62.3236 H       1  ZINC000438893617    0.0700
     50 H50       -10.9627    0.8961   64.0456 H       1  ZINC000438893617    0.0700
     51 H51       -10.6409   -0.8074   63.6425 H       1  ZINC000438893617    0.0600
     52 H52        -9.9422   -1.4326   61.3265 H       1  ZINC000438893617    0.0700
     53 H53        -9.7661   -0.1744   60.0798 H       1  ZINC000438893617    0.0700
     54 H54       -11.7904    0.9659   59.1612 H       1  ZINC000438893617    0.0700
     55 H55       -13.4087    0.5201   59.7534 H       1  ZINC000438893617    0.0800
     56 H56       -10.5235    0.3134   58.9262 H       1  ZINC000438893617    0.1300
     57 H57        -9.3700   -0.6740   57.9916 H       1  ZINC000438893617    0.0800
     58 H58       -10.1572    1.0650   56.5096 H       1  ZINC000438893617    0.1100
     59 H59       -11.8555    0.7528   56.9540 H       1  ZINC000438893617    0.0700
     60 H60        -4.6733    3.5978   52.8619 H       1  ZINC000438893617    0.1700
     61 H61        -4.5537    1.4494   51.5166 H       1  ZINC000438893617    0.1400
@<TRIPOS>BOND
     1     1     2    1
     2     1    32    1
     3     1    33    1
     4     1    34    1
     5     2    31    1
     6     2     3    2
     7     3     4    1
     8     3    29    1
     9     4     5    1
    10     4     7    1
    11     4     6    1
    12     6     7    1
    13     6    35    1
    14     6    36    1
    15     7     8    1
    16     7     9    1
    17     9    10    2
    18     9    11   am
    19    11    28    1
    20    11    12    1
    21    12    13    1
    22    12    37    1
    23    12    38    1
    24    13    14    1
    25    13    39    1
    26    13    40    1
    27    14    15   am
    28    14    27    1
    29    15    16    2
    30    15    17    1
    31    17    25    1
    32    17    26    1
    33    17    18    1
    34    18    19    1
    35    18    41    1
    36    18    42    1
    37    19    24    1
    38    19    20    1
    39    19    43    1
    40    20    21    1
    41    20    44    1
    42    20    45    1
    43    21    22    1
    44    21    26    1
    45    21    46    1
    46    22    23    1
    47    22    47    1
    48    22    48    1
    49    23    24    1
    50    23    25    1
    51    23    49    1
    52    24    50    1
    53    24    51    1
    54    25    52    1
    55    25    53    1
    56    26    54    1
    57    26    55    1
    58    27    28    1
    59    27    56    1
    60    27    57    1
    61    28    58    1
    62    28    59    1
    63    29    30    1
    64    30    31    2
    65    30    60    1
    66    31    61    1
@<TRIPOS>SUBSTRUCTURE
     1 ZINC000438893617        1 TEMP              0 ****  ****    0 ROOT


##########                                Name:    ZINC001436455587
##########                DOCK_Rotatable_Bonds:                   9
##########                         Heavy_Atoms:                  21
##########                    Molecular_Weight:             378.693
##########                DOCK_Rotatable_Bonds:                   9
##########                       Formal_Charge:          -0.0200001
##########                     HBond_Acceptors:                   5
##########                        HBond_Donors:                   1
##########                         Heavy_Atoms:                  21
##########                          Grid_Score:          -29.086147
##########                     Grid_vdw_energy:          -28.786613
##########                      Grid_es_energy:           -0.299534
##########           Internal_energy_repulsive:           13.750532

@<TRIPOS>MOLECULE
ZINC001436455587
 42 42 1 0 0
SMALL
USER_CHARGES


@<TRIPOS>ATOM
      1 C1        -16.1273   -2.2434   56.2657 C.3     1  ZINC001436455587   -0.1500
      2 C2        -14.7117   -2.6217   55.8254 C.3     1  ZINC001436455587   -0.1300
      3 C3        -14.6345   -4.1331   55.6003 C.3     1  ZINC001436455587   -0.1400
      4 C4        -14.6188   -4.8499   56.9519 C.3     1  ZINC001436455587    0.0800
      5 H5        -15.0860   -4.2154   57.7050 H       1  ZINC001436455587    0.0700
      6 C6        -13.1727   -5.1424   57.3573 C.3     1  ZINC001436455587    0.1200
      7 N7        -12.6232   -3.9882   58.0729 N.am    1  ZINC001436455587   -0.7200
      8 C8        -11.3892   -4.0540   58.6110 C.2     1  ZINC001436455587    0.5200
      9 O9        -10.7332   -5.0681   58.5014 O.2     1  ZINC001436455587   -0.5100
     10 C10       -10.8247   -2.8673   59.3487 C.3     1  ZINC001436455587    0.0600
     11 H11       -11.3527   -1.9643   59.0424 H       1  ZINC001436455587    0.1000
     12 C12        -9.3370   -2.7240   59.0214 C.3     1  ZINC001436455587   -0.1800
     13 O13       -10.9866   -3.0598   60.7553 O.3     1  ZINC001436455587   -0.2700
     14 C14       -11.8137   -2.1986   61.4050 C.ar    1  ZINC001436455587    0.1600
     15 C15       -13.1887   -2.3417   61.2967 C.ar    1  ZINC001436455587   -0.2000
     16 C16       -14.0280   -1.4656   61.9581 C.ar    1  ZINC001436455587   -0.0500
     17 C17       -13.4978   -0.4458   62.7279 C.ar    1  ZINC001436455587   -0.0700
     18 Cl18      -14.5548    0.6536   63.5572 Cl      1  ZINC001436455587   -0.0600
     19 C19       -12.1259   -0.3010   62.8380 C.ar    1  ZINC001436455587   -0.0400
     20 C20       -11.2830   -1.1782   62.1824 C.ar    1  ZINC001436455587   -0.1200
     21 Br21       -9.4084   -0.9803   62.3329 Br      1  ZINC001436455587   -0.0100
     22 O22       -15.3421   -6.0780   56.8483 O.3     1  ZINC001436455587   -0.3800
     23 C23       -14.6898   -7.0717   56.0550 C.3     1  ZINC001436455587    0.0200
     24 H24       -16.8381   -2.5323   55.4914 H       1  ZINC001436455587    0.0500
     25 H25       -16.3701   -2.7619   57.1934 H       1  ZINC001436455587    0.0600
     26 H26       -16.1824   -1.1667   56.4262 H       1  ZINC001436455587    0.0600
     27 H27       -14.4690   -2.1034   54.8978 H       1  ZINC001436455587    0.0600
     28 H28       -14.0010   -2.3330   56.5997 H       1  ZINC001436455587    0.0700
     29 H29       -15.5015   -4.4597   55.0260 H       1  ZINC001436455587    0.0800
     30 H30       -13.7239   -4.3726   55.0513 H       1  ZINC001436455587    0.0800
     31 H31       -13.1473   -6.0180   58.0061 H       1  ZINC001436455587    0.0800
     32 H32       -12.5768   -5.3341   56.4650 H       1  ZINC001436455587    0.0800
     33 H33       -13.1475   -3.1767   58.1596 H       1  ZINC001436455587    0.4000
     34 H34        -8.9286   -1.8657   59.5551 H       1  ZINC001436455587    0.0800
     35 H35        -8.8089   -3.6271   59.3277 H       1  ZINC001436455587    0.0800
     36 H36        -9.2134   -2.5771   57.9484 H       1  ZINC001436455587    0.0800
     37 H37       -13.6034   -3.1372   60.6954 H       1  ZINC001436455587    0.1500
     38 H38       -15.0990   -1.5770   61.8739 H       1  ZINC001436455587    0.1400
     39 H39       -11.7139    0.4956   63.4396 H       1  ZINC001436455587    0.1500
     40 H40       -13.7598   -7.3700   56.5389 H       1  ZINC001436455587    0.0500
     41 H41       -15.3409   -7.9398   55.9526 H       1  ZINC001436455587    0.0900
     42 H42       -14.4712   -6.6629   55.0685 H       1  ZINC001436455587    0.0400
@<TRIPOS>BOND
     1     1     2    1
     2     1    24    1
     3     1    25    1
     4     1    26    1
     5     2     3    1
     6     2    27    1
     7     2    28    1
     8     3     4    1
     9     3    29    1
    10     3    30    1
    11     4     5    1
    12     4     6    1
    13     4    22    1
    14     6     7    1
    15     6    31    1
    16     6    32    1
    17     7     8   am
    18     7    33    1
    19     8     9    2
    20     8    10    1
    21    10    11    1
    22    10    12    1
    23    10    13    1
    24    12    34    1
    25    12    35    1
    26    12    36    1
    27    13    14    1
    28    14    20   ar
    29    14    15   ar
    30    15    16   ar
    31    15    37    1
    32    16    17   ar
    33    16    38    1
    34    17    18    1
    35    17    19   ar
    36    19    20   ar
    37    19    39    1
    38    20    21    1
    39    22    23    1
    40    23    40    1
    41    23    41    1
    42    23    42    1
@<TRIPOS>SUBSTRUCTURE
     1 ZINC001436455587        1 TEMP              0 ****  ****    0 ROOT


##########                                Name:    ZINC000265724350
##########                DOCK_Rotatable_Bonds:                   8
##########                         Heavy_Atoms:                  23
##########                    Molecular_Weight:              345.42
##########                DOCK_Rotatable_Bonds:                   8
##########                       Formal_Charge:          -0.0300002
##########                     HBond_Acceptors:                   9
##########                        HBond_Donors:                   2
##########                         Heavy_Atoms:                  23
##########                          Grid_Score:          -29.084209
##########                     Grid_vdw_energy:          -27.244011
##########                      Grid_es_energy:           -1.840199
##########           Internal_energy_repulsive:            7.276480

@<TRIPOS>MOLECULE
ZINC000265724350
 46 47 1 0 0
SMALL
USER_CHARGES


@<TRIPOS>ATOM
      1 C1         -7.6744    1.8892   55.1938 C.3     1  ZINC000265724350    0.0800
      2 N2         -6.4170    2.4923   54.7449 N.am    1  ZINC000265724350   -1.1100
      3 S3         -6.2129    2.8915   53.1508 S.o2    1  ZINC000265724350    2.7200
      4 O4         -6.1990    1.6674   52.4292 O.2     1  ZINC000265724350   -0.9300
      5 O5         -7.1295    3.9430   52.8799 O.2     1  ZINC000265724350   -0.9300
      6 C6         -4.6004    3.5830   52.9886 C.2     1  ZINC000265724350   -0.5600
      7 C7         -3.8845    4.1521   53.9834 C.2     1  ZINC000265724350   -0.0900
      8 C8         -2.6643    4.5684   53.4283 C.2     1  ZINC000265724350   -0.1400
      9 C9         -2.6980    4.2280   52.1064 C.2     1  ZINC000265724350   -0.0200
     10 C10        -1.6335    4.4694   51.1269 C.2     1  ZINC000265724350    0.6000
     11 O11        -0.6017    5.0150   51.4717 O.2     1  ZINC000265724350   -0.5000
     12 N12        -1.7978    4.0871   49.8450 N.am    1  ZINC000265724350   -0.7100
     13 C13        -0.7337    4.3267   48.8670 C.3     1  ZINC000265724350    0.1200
     14 C14        -0.1797    2.9871   48.3776 C.3     1  ZINC000265724350   -0.1100
     15 H15         0.4400    3.1505   47.4960 H       1  ZINC000265724350    0.0800
     16 C16         0.6642    2.3498   49.4833 C.3     1  ZINC000265724350   -0.1400
     17 C17        -1.3396    2.0556   48.0203 C.3     1  ZINC000265724350    0.0600
     18 N18        -0.8536    0.9834   47.1416 N.3     1  ZINC000265724350   -0.5300
     19 C19        -1.3632    1.1520   45.7730 C.3     1  ZINC000265724350    0.0100
     20 C20        -0.7860    0.0506   44.8799 C.3     1  ZINC000265724350    0.0600
     21 O21        -1.1217   -1.2264   45.4291 O.3     1  ZINC000265724350   -0.3900
     22 C22        -0.6404   -1.4249   46.7611 C.3     1  ZINC000265724350    0.0600
     23 C23        -1.2162   -0.3385   47.6732 C.3     1  ZINC000265724350    0.0200
     24 O24        -3.8799    3.6258   51.8604 O.3     1  ZINC000265724350   -0.1100
     25 H25        -7.6233    1.6979   56.2657 H       1  ZINC000265724350    0.0900
     26 H26        -8.4991    2.5709   54.9855 H       1  ZINC000265724350    0.0600
     27 H27        -7.8365    0.9503   54.6644 H       1  ZINC000265724350    0.0700
     28 H28        -5.7040    2.6577   55.3814 H       1  ZINC000265724350    0.4200
     29 H29        -4.1931    4.2654   55.0121 H       1  ZINC000265724350    0.1800
     30 H30        -1.8557    5.0624   53.9463 H       1  ZINC000265724350    0.1700
     31 H31        -2.6206    3.6533   49.5700 H       1  ZINC000265724350    0.4100
     32 H32        -1.1361    4.8843   48.0214 H       1  ZINC000265724350    0.0800
     33 H33         0.0660    4.9018   49.3338 H       1  ZINC000265724350    0.0700
     34 H34         1.4906    3.0134   49.7379 H       1  ZINC000265724350    0.0500
     35 H35         0.0444    2.1864   50.3649 H       1  ZINC000265724350    0.0600
     36 H36         1.0588    1.3954   49.1347 H       1  ZINC000265724350    0.0700
     37 H37        -1.7503    1.6205   48.9313 H       1  ZINC000265724350    0.0800
     38 H38        -2.1159    2.6226   47.5064 H       1  ZINC000265724350    0.0400
     39 H39        -2.4510    1.0833   45.7786 H       1  ZINC000265724350    0.0400
     40 H40        -1.0615    2.1268   45.3898 H       1  ZINC000265724350    0.0900
     41 H41        -1.2055    0.1376   43.8776 H       1  ZINC000265724350    0.1000
     42 H42         0.2982    0.1523   44.8313 H       1  ZINC000265724350    0.0600
     43 H43        -0.9547   -2.4052   47.1194 H       1  ZINC000265724350    0.1000
     44 H44         0.4480   -1.3662   46.7672 H       1  ZINC000265724350    0.0600
     45 H45        -0.8071   -0.4517   48.6772 H       1  ZINC000265724350    0.0900
     46 H46        -2.3017   -0.4311   47.7092 H       1  ZINC000265724350    0.0400
@<TRIPOS>BOND
     1     1     2    1
     2     1    25    1
     3     1    26    1
     4     1    27    1
     5     2     3   am
     6     2    28    1
     7     3     4    2
     8     3     5    2
     9     3     6    1
    10     6    24    1
    11     6     7    2
    12     7     8    1
    13     7    29    1
    14     8     9    2
    15     8    30    1
    16     9    10    1
    17     9    24    1
    18    10    11    2
    19    10    12   am
    20    12    13    1
    21    12    31    1
    22    13    14    1
    23    13    32    1
    24    13    33    1
    25    14    15    1
    26    14    16    1
    27    14    17    1
    28    16    34    1
    29    16    35    1
    30    16    36    1
    31    17    18    1
    32    17    37    1
    33    17    38    1
    34    18    23    1
    35    18    19    1
    36    19    20    1
    37    19    39    1
    38    19    40    1
    39    20    21    1
    40    20    41    1
    41    20    42    1
    42    21    22    1
    43    22    23    1
    44    22    43    1
    45    22    44    1
    46    23    45    1
    47    23    46    1
@<TRIPOS>SUBSTRUCTURE
     1 ZINC000265724350        1 TEMP              0 ****  ****    0 ROOT


##########                                Name:    ZINC000750807956
##########                DOCK_Rotatable_Bonds:                  11
##########                         Heavy_Atoms:                  26
##########                    Molecular_Weight:             368.473
##########                DOCK_Rotatable_Bonds:                  11
##########                       Formal_Charge:        -8.12113e-07
##########                     HBond_Acceptors:                   7
##########                        HBond_Donors:                   1
##########                         Heavy_Atoms:                  26
##########                          Grid_Score:          -29.081854
##########                     Grid_vdw_energy:          -25.123936
##########                      Grid_es_energy:           -3.957918
##########           Internal_energy_repulsive:           94.440948

@<TRIPOS>MOLECULE
ZINC000750807956
 58 59 1 0 0
SMALL
USER_CHARGES


@<TRIPOS>ATOM
      1 C1        -15.5961   -2.8454   62.1870 C.3     1  ZINC000750807956   -0.1500
      2 C2        -15.2514   -1.3561   62.2538 C.3     1  ZINC000750807956    0.0700
      3 O3        -13.8111   -1.1962   62.3441 O.3     1  ZINC000750807956   -0.3600
      4 C4        -13.2422   -0.3141   61.5074 C.2     1  ZINC000750807956    0.4800
      5 O5        -13.6645    0.8161   61.4428 O.2     1  ZINC000750807956   -0.4900
      6 C6        -12.0771   -0.7334   60.6486 C.3     1  ZINC000750807956    0.1600
      7 H7        -11.9845   -0.0539   59.8013 H       1  ZINC000750807956    0.1000
      8 C8        -12.3016   -2.1608   60.1398 C.3     1  ZINC000750807956   -0.1300
      9 C9        -11.0557   -2.6310   59.3855 C.3     1  ZINC000750807956   -0.1200
     10 C10        -9.8554   -2.6397   60.3348 C.3     1  ZINC000750807956   -0.1400
     11 C11        -9.6033   -1.2177   60.8458 C.3     1  ZINC000750807956    0.1100
     12 N12       -10.8421   -0.7003   61.4438 N.am    1  ZINC000750807956   -0.6100
     13 C13       -10.8459   -0.2099   62.6991 C.2     1  ZINC000750807956    0.5100
     14 O14       -11.8748    0.2142   63.1813 O.2     1  ZINC000750807956   -0.5000
     15 C15        -9.5718   -0.1884   63.5036 C.3     1  ZINC000750807956   -0.1400
     16 C16        -9.7972    0.6008   64.7949 C.3     1  ZINC000750807956    0.2100
     17 H17       -10.7479    0.3064   65.2393 H       1  ZINC000750807956    0.1000
     18 N18        -9.8223    2.0341   64.4931 N.am    1  ZINC000750807956   -0.7000
     19 C19       -10.9382    2.7526   64.7274 C.2     1  ZINC000750807956    0.6600
     20 O20       -11.9230    2.2119   65.1904 O.2     1  ZINC000750807956   -0.5600
     21 O21       -10.9619    4.0696   64.4485 O.3     1  ZINC000750807956   -0.3700
     22 C22       -12.1972    4.7802   64.7265 C.3     1  ZINC000750807956    0.1400
     23 C23       -13.3342    4.1661   63.9073 C.3     1  ZINC000750807956   -0.1800
     24 C24       -12.5251    4.6696   66.2168 C.3     1  ZINC000750807956   -0.1400
     25 C25       -12.0342    6.2536   64.3481 C.3     1  ZINC000750807956   -0.1800
     26 C26        -8.6620    0.3062   65.7774 C.3     1  ZINC000750807956   -0.1800
     27 C27        -9.0415    0.0334   67.2342 C.3     1  ZINC000750807956   -0.1700
     28 C28        -8.5653   -1.1132   66.3401 C.3     1  ZINC000750807956   -0.1800
     29 H29       -15.2307   -3.3435   63.0851 H       1  ZINC000750807956    0.0600
     30 H30       -16.6773   -2.9653   62.1193 H       1  ZINC000750807956    0.0800
     31 H31       -15.1257   -3.2881   61.3091 H       1  ZINC000750807956    0.0700
     32 H32       -15.6168   -0.8580   61.3558 H       1  ZINC000750807956    0.0700
     33 H33       -15.7219   -0.9134   63.1318 H       1  ZINC000750807956    0.0600
     34 H34       -12.4866   -2.8235   60.9853 H       1  ZINC000750807956    0.0800
     35 H35       -13.1607   -2.1772   59.4693 H       1  ZINC000750807956    0.0800
     36 H36       -11.2222   -3.6374   59.0013 H       1  ZINC000750807956    0.0800
     37 H37       -10.8570   -1.9537   58.5549 H       1  ZINC000750807956    0.0700
     38 H38       -10.0635   -3.2978   61.1785 H       1  ZINC000750807956    0.0700
     39 H39        -8.9735   -2.9969   59.8031 H       1  ZINC000750807956    0.0800
     40 H40        -8.8138   -1.2340   61.5971 H       1  ZINC000750807956    0.0900
     41 H41        -9.3064   -0.5780   60.0146 H       1  ZINC000750807956    0.0800
     42 H42        -9.2793   -1.2095   63.7482 H       1  ZINC000750807956    0.1200
     43 H43        -8.7822    0.2861   62.9209 H       1  ZINC000750807956    0.1100
     44 H44        -9.0358    2.4660   64.1246 H       1  ZINC000750807956    0.4000
     45 H45       -13.4504    3.1163   64.1768 H       1  ZINC000750807956    0.0600
     46 H46       -14.2616    4.6996   64.1159 H       1  ZINC000750807956    0.0700
     47 H47       -13.1007    4.2449   62.8455 H       1  ZINC000750807956    0.0900
     48 H48       -11.7150    5.1071   66.8004 H       1  ZINC000750807956    0.0700
     49 H49       -13.4524    5.2030   66.4255 H       1  ZINC000750807956    0.0800
     50 H50       -12.6412    3.6198   66.4864 H       1  ZINC000750807956    0.0700
     51 H51       -11.8007    6.3324   63.2863 H       1  ZINC000750807956    0.0900
     52 H52       -12.9616    6.7871   64.5567 H       1  ZINC000750807956    0.0700
     53 H53       -11.2242    6.6912   64.9316 H       1  ZINC000750807956    0.0600
     54 H54        -7.7291    0.8385   65.5912 H       1  ZINC000750807956    0.1100
     55 H55        -8.3585    0.3862   68.0068 H       1  ZINC000750807956    0.0900
     56 H56       -10.1001    0.0637   67.4926 H       1  ZINC000750807956    0.0900
     57 H57        -9.3104   -1.8372   66.0103 H       1  ZINC000750807956    0.1200
     58 H58        -7.5688   -1.5147   66.5245 H       1  ZINC000750807956    0.0900
@<TRIPOS>BOND
     1     1     2    1
     2     1    29    1
     3     1    30    1
     4     1    31    1
     5     2     3    1
     6     2    32    1
     7     2    33    1
     8     3     4    1
     9     4     5    2
    10     4     6    1
    11     6     7    1
    12     6    12    1
    13     6     8    1
    14     8     9    1
    15     8    34    1
    16     8    35    1
    17     9    10    1
    18     9    36    1
    19     9    37    1
    20    10    11    1
    21    10    38    1
    22    10    39    1
    23    11    12    1
    24    11    40    1
    25    11    41    1
    26    12    13   am
    27    13    14    2
    28    13    15    1
    29    15    16    1
    30    15    42    1
    31    15    43    1
    32    16    17    1
    33    16    18    1
    34    16    26    1
    35    18    19   am
    36    18    44    1
    37    19    20    2
    38    19    21    1
    39    21    22    1
    40    22    23    1
    41    22    24    1
    42    22    25    1
    43    23    45    1
    44    23    46    1
    45    23    47    1
    46    24    48    1
    47    24    49    1
    48    24    50    1
    49    25    51    1
    50    25    52    1
    51    25    53    1
    52    26    28    1
    53    26    27    1
    54    26    54    1
    55    27    28    1
    56    27    55    1
    57    27    56    1
    58    28    57    1
    59    28    58    1
@<TRIPOS>SUBSTRUCTURE
     1 ZINC000750807956        1 TEMP              0 ****  ****    0 ROOT


##########                                Name:    ZINC000609484313
##########                DOCK_Rotatable_Bonds:                  10
##########                         Heavy_Atoms:                  26
##########                    Molecular_Weight:             361.487
##########                DOCK_Rotatable_Bonds:                  10
##########                       Formal_Charge:          -0.0200004
##########                     HBond_Acceptors:                   7
##########                        HBond_Donors:                   1
##########                         Heavy_Atoms:                  26
##########                          Grid_Score:          -29.079184
##########                     Grid_vdw_energy:          -27.936602
##########                      Grid_es_energy:           -1.142582
##########           Internal_energy_repulsive:           35.915325

@<TRIPOS>MOLECULE
ZINC000609484313
 57 58 1 0 0
SMALL
USER_CHARGES


@<TRIPOS>ATOM
      1 C1        -12.9648   -3.6549   56.3646 C.3     1  ZINC000609484313   -0.1500
      2 C2        -11.9537   -2.5998   55.9114 C.3     1  ZINC000609484313   -0.1300
      3 C3        -11.4734   -1.7998   57.1240 C.3     1  ZINC000609484313   -0.1100
      4 C4        -12.3323   -0.5432   57.2788 C.3     1  ZINC000609484313   -0.1100
      5 C5        -11.4745    0.5959   57.8334 C.3     1  ZINC000609484313    0.0800
      6 H6        -12.0369    1.5286   57.7898 H       1  ZINC000609484313    0.1200
      7 C7        -11.1070    0.2974   59.2640 C.2     1  ZINC000609484313    0.4900
      8 O8        -11.6098    0.9346   60.1650 O.2     1  ZINC000609484313   -0.5000
      9 N9        -10.2192   -0.6778   59.5422 N.am    1  ZINC000609484313   -0.6300
     10 C10        -9.8802   -0.9553   60.8666 C.2     1  ZINC000609484313    0.2400
     11 N11        -9.7654   -2.1357   61.4165 N.2     1  ZINC000609484313   -0.3900
     12 O12        -9.4588   -2.0527   62.5832 O.3     1  ZINC000609484313    0.1000
     13 C13        -9.3261   -0.7763   62.9724 C.2     1  ZINC000609484313   -0.0200
     14 C14        -8.9544   -0.2886   64.3490 C.3     1  ZINC000609484313   -0.0800
     15 C15        -9.5845   -0.0123   61.8867 C.2     1  ZINC000609484313   -0.2300
     16 N16       -10.2513    0.7236   57.0300 N.3     1  ZINC000609484313   -0.5000
     17 C17        -9.2999    1.6479   57.6624 C.3     1  ZINC000609484313    0.0400
     18 C18        -8.0110    1.6920   56.8383 C.3     1  ZINC000609484313    0.0500
     19 N19        -8.3237    2.1189   55.4673 N.3     1  ZINC000609484313   -0.5100
     20 C20        -7.1004    2.2466   54.6638 C.3     1  ZINC000609484313    0.1800
     21 H21        -6.2328    2.0244   55.2851 H       1  ZINC000609484313    0.1200
     22 C22        -7.1524    1.3007   53.5372 C.1     1  ZINC000609484313    0.1700
     23 N23        -7.1926    0.5706   52.6678 N.1     1  ZINC000609484313   -0.4200
     24 C24        -6.9903    3.6747   54.1260 C.3     1  ZINC000609484313   -0.0800
     25 C25        -5.7813    3.7769   53.1939 C.3     1  ZINC000609484313   -0.1400
     26 C26        -8.2622    4.0277   53.3521 C.3     1  ZINC000609484313   -0.1500
     27 C27        -9.2750    1.1945   54.8349 C.3     1  ZINC000609484313    0.0500
     28 C28       -10.5639    1.1505   55.6590 C.3     1  ZINC000609484313    0.0400
     29 H29       -12.4916   -4.3280   57.0795 H       1  ZINC000609484313    0.0500
     30 H30       -13.8158   -3.1638   56.8363 H       1  ZINC000609484313    0.0500
     31 H31       -13.3070   -4.2248   55.5007 H       1  ZINC000609484313    0.0500
     32 H32       -11.1027   -3.0909   55.4397 H       1  ZINC000609484313    0.0600
     33 H33       -12.4269   -1.9266   55.1964 H       1  ZINC000609484313    0.0600
     34 H34       -11.5606   -2.4124   58.0213 H       1  ZINC000609484313    0.0800
     35 H35       -10.4318   -1.5123   56.9801 H       1  ZINC000609484313    0.0600
     36 H36       -12.7340   -0.2556   56.3072 H       1  ZINC000609484313    0.0700
     37 H37       -13.1538   -0.7470   57.9656 H       1  ZINC000609484313    0.0800
     38 H38        -9.8161   -1.1867   58.8215 H       1  ZINC000609484313    0.4200
     39 H39        -8.8032   -1.1431   65.0086 H       1  ZINC000609484313    0.0800
     40 H40        -8.0348    0.2938   64.2920 H       1  ZINC000609484313    0.0900
     41 H41        -9.7565    0.3363   64.7419 H       1  ZINC000609484313    0.0900
     42 H42        -9.5752    1.0652   61.8140 H       1  ZINC000609484313    0.1900
     43 H43        -9.7372    2.6453   57.7072 H       1  ZINC000609484313    0.0800
     44 H44        -9.0746    1.3036   58.6718 H       1  ZINC000609484313    0.0800
     45 H45        -7.3148    2.3990   57.2895 H       1  ZINC000609484313    0.0900
     46 H46        -7.5595    0.7002   56.8162 H       1  ZINC000609484313    0.0400
     47 H47        -6.8672    4.3678   54.9581 H       1  ZINC000609484313    0.0800
     48 H48        -5.9045    3.0837   52.3617 H       1  ZINC000609484313    0.0600
     49 H49        -5.7029    4.7943   52.8107 H       1  ZINC000609484313    0.0500
     50 H50        -4.8753    3.5254   53.7452 H       1  ZINC000609484313    0.0700
     51 H51        -8.1463    5.0084   52.8907 H       1  ZINC000609484313    0.0700
     52 H52        -8.4357    3.2802   52.5781 H       1  ZINC000609484313    0.0600
     53 H53        -9.1105    4.0460   54.0363 H       1  ZINC000609484313    0.0500
     54 H54        -9.5003    1.5388   53.8255 H       1  ZINC000609484313    0.0900
     55 H55        -8.8377    0.1971   54.7900 H       1  ZINC000609484313    0.0400
     56 H56       -11.2601    0.4436   55.2078 H       1  ZINC000609484313    0.0800
     57 H57       -11.0155    2.1423   55.6810 H       1  ZINC000609484313    0.0800
@<TRIPOS>BOND
     1     1     2    1
     2     1    29    1
     3     1    30    1
     4     1    31    1
     5     2     3    1
     6     2    32    1
     7     2    33    1
     8     3     4    1
     9     3    34    1
    10     3    35    1
    11     4     5    1
    12     4    36    1
    13     4    37    1
    14     5     6    1
    15     5     7    1
    16     5    16    1
    17     7     8    2
    18     7     9   am
    19     9    10    1
    20     9    38    1
    21    10    15    1
    22    10    11    2
    23    11    12    1
    24    12    13    1
    25    13    14    1
    26    13    15    2
    27    14    39    1
    28    14    40    1
    29    14    41    1
    30    15    42    1
    31    16    28    1
    32    16    17    1
    33    17    18    1
    34    17    43    1
    35    17    44    1
    36    18    19    1
    37    18    45    1
    38    18    46    1
    39    19    20    1
    40    19    27    1
    41    20    21    1
    42    20    22    1
    43    20    24    1
    44    22    23    3
    45    24    25    1
    46    24    26    1
    47    24    47    1
    48    25    48    1
    49    25    49    1
    50    25    50    1
    51    26    51    1
    52    26    52    1
    53    26    53    1
    54    27    28    1
    55    27    54    1
    56    27    55    1
    57    28    56    1
    58    28    57    1
@<TRIPOS>SUBSTRUCTURE
     1 ZINC000609484313        1 TEMP              0 ****  ****    0 ROOT


##########                                Name:    ZINC000530457945
##########                DOCK_Rotatable_Bonds:                   4
##########                         Heavy_Atoms:                  25
##########                    Molecular_Weight:             355.827
##########                DOCK_Rotatable_Bonds:                   4
##########                       Formal_Charge:           0.0199997
##########                     HBond_Acceptors:                   7
##########                        HBond_Donors:                   1
##########                         Heavy_Atoms:                  25
##########                          Grid_Score:          -29.069384
##########                     Grid_vdw_energy:          -28.418720
##########                      Grid_es_energy:           -0.650663
##########           Internal_energy_repulsive:           33.484226

@<TRIPOS>MOLECULE
ZINC000530457945
 43 46 1 0 0
SMALL
USER_CHARGES


@<TRIPOS>ATOM
      1 C1        -11.9836   -2.4723   61.4019 C.3     1  ZINC000530457945   -0.1700
      2 C2        -11.7196   -1.8753   60.0182 C.3     1  ZINC000530457945    0.0900
      3 H3        -12.6634   -1.7188   59.4959 H       1  ZINC000530457945    0.1100
      4 C4        -10.8178   -2.8238   59.2005 C.3     1  ZINC000530457945   -0.1200
      5 H5        -10.2394   -3.4701   59.8606 H       1  ZINC000530457945    0.1100
      6 C6        -11.6400   -3.6447   58.2407 C.2     1  ZINC000530457945    0.5300
      7 O7        -11.2591   -4.7458   57.9041 O.2     1  ZINC000530457945   -0.4700
      8 N8        -12.7987   -3.1552   57.7565 N.am    1  ZINC000530457945   -0.6200
      9 C9        -13.5599   -3.9153   56.8658 C.2     1  ZINC000530457945    0.4800
     10 N10       -13.8213   -5.2004   56.9931 N.2     1  ZINC000530457945   -0.3000
     11 N11       -14.6096   -5.5709   55.8943 N.pl3   1  ZINC000530457945   -0.2800
     12 C12       -15.1663   -6.7486   55.5066 C.2     1  ZINC000530457945    0.1400
     13 C13       -15.8988   -6.8227   54.3711 C.2     1  ZINC000530457945   -0.0800
     14 Cl14      -16.6022   -8.3357   53.8919 Cl      1  ZINC000530457945   -0.0200
     15 C15       -16.0917   -5.6798   53.5803 C.2     1  ZINC000530457945   -0.0500
     16 C16       -15.5372   -4.4957   53.9626 C.2     1  ZINC000530457945   -0.0900
     17 C17       -14.7794   -4.4411   55.1459 C.2     1  ZINC000530457945    0.3000
     18 N18       -14.1374   -3.4529   55.7615 N.2     1  ZINC000530457945   -0.5500
     19 C19        -9.8867   -1.8473   58.4349 C.3     1  ZINC000530457945   -0.1200
     20 C20        -9.6891   -0.7200   59.4789 C.3     1  ZINC000530457945    0.0400
     21 N21       -11.0026   -0.5940   60.1532 N.3     1  ZINC000530457945   -0.4900
     22 C22       -10.8441   -0.2484   61.4973 C.ar    1  ZINC000530457945    0.1000
     23 C23        -9.8621   -0.8638   62.2631 C.ar    1  ZINC000530457945   -0.1600
     24 C24        -9.7078   -0.5194   63.5916 C.ar    1  ZINC000530457945   -0.1100
     25 C25       -10.5298    0.4366   64.1596 C.ar    1  ZINC000530457945   -0.1300
     26 C26       -11.5084    1.0511   63.4001 C.ar    1  ZINC000530457945   -0.1100
     27 C27       -11.6643    0.7157   62.0695 C.ar    1  ZINC000530457945   -0.1000
     28 H28       -12.5147   -1.7451   62.0161 H       1  ZINC000530457945    0.0700
     29 H29       -12.5892   -3.3728   61.2996 H       1  ZINC000530457945    0.0600
     30 H30       -11.0349   -2.7244   61.8759 H       1  ZINC000530457945    0.0600
     31 H31       -13.1039   -2.2750   58.0267 H       1  ZINC000530457945    0.4300
     32 H32       -15.0226   -7.6329   56.1097 H       1  ZINC000530457945    0.1800
     33 H33       -16.6759   -5.7386   52.6739 H       1  ZINC000530457945    0.1600
     34 H34       -15.6776   -3.6085   53.3630 H       1  ZINC000530457945    0.1700
     35 H35        -8.9374   -2.3237   58.1903 H       1  ZINC000530457945    0.0900
     36 H36       -10.3736   -1.4668   57.5369 H       1  ZINC000530457945    0.0900
     37 H37        -8.9177   -0.9988   60.1968 H       1  ZINC000530457945    0.0700
     38 H38        -9.4274    0.2147   58.9832 H       1  ZINC000530457945    0.0900
     39 H39        -9.2202   -1.6110   61.8203 H       1  ZINC000530457945    0.1200
     40 H40        -8.9445   -0.9975   64.1876 H       1  ZINC000530457945    0.1200
     41 H41       -10.4075    0.7036   65.1990 H       1  ZINC000530457945    0.1200
     42 H42       -12.1487    1.7974   63.8468 H       1  ZINC000530457945    0.1300
     43 H43       -12.4286    1.1962   61.4768 H       1  ZINC000530457945    0.1300
@<TRIPOS>BOND
     1     1     2    1
     2     1    28    1
     3     1    29    1
     4     1    30    1
     5     2     3    1
     6     2    21    1
     7     2     4    1
     8     4     5    1
     9     4     6    1
    10     4    19    1
    11     6     7    2
    12     6     8   am
    13     8     9    1
    14     8    31    1
    15     9    18    1
    16     9    10    2
    17    10    11    1
    18    11    17    1
    19    11    12    1
    20    12    13    2
    21    12    32    1
    22    13    14    1
    23    13    15    1
    24    15    16    2
    25    15    33    1
    26    16    17    1
    27    16    34    1
    28    17    18    2
    29    19    20    1
    30    19    35    1
    31    19    36    1
    32    20    21    1
    33    20    37    1
    34    20    38    1
    35    21    22    1
    36    22    27   ar
    37    22    23   ar
    38    23    24   ar
    39    23    39    1
    40    24    25   ar
    41    24    40    1
    42    25    26   ar
    43    25    41    1
    44    26    27   ar
    45    26    42    1
    46    27    43    1
@<TRIPOS>SUBSTRUCTURE
     1 ZINC000530457945        1 TEMP              0 ****  ****    0 ROOT


##########                                Name:    ZINC000536173632
##########                DOCK_Rotatable_Bonds:                   7
##########                         Heavy_Atoms:                  29
##########                    Molecular_Weight:             407.389
##########                DOCK_Rotatable_Bonds:                   7
##########                       Formal_Charge:        -2.98023e-07
##########                     HBond_Acceptors:                   8
##########                        HBond_Donors:                   0
##########                         Heavy_Atoms:                  29
##########                          Grid_Score:          -29.036276
##########                     Grid_vdw_energy:          -29.004646
##########                      Grid_es_energy:           -0.031630
##########           Internal_energy_repulsive:           14.884130

@<TRIPOS>MOLECULE
ZINC000536173632
 49 51 1 0 0
SMALL
USER_CHARGES


@<TRIPOS>ATOM
      1 C1         -5.0087    3.5516   56.0497 C.3     1  ZINC000536173632    0.0400
      2 O2         -6.1485    2.6591   56.1633 O.3     1  ZINC000536173632   -0.3500
      3 C3         -7.1390    2.8146   55.2638 C.2     1  ZINC000536173632    0.5100
      4 O4         -7.0526    3.6717   54.4074 O.2     1  ZINC000536173632   -0.5000
      5 C5         -8.3304    1.9429   55.3189 C.ar    1  ZINC000536173632   -0.1300
      6 C6         -9.3219    2.0480   54.3417 C.ar    1  ZINC000536173632   -0.0600
      7 C7        -10.4320    1.2309   54.3992 C.ar    1  ZINC000536173632   -0.1300
      8 C8        -10.5642    0.3093   55.4226 C.ar    1  ZINC000536173632   -0.0700
      9 C9         -9.5853    0.1999   56.3945 C.ar    1  ZINC000536173632   -0.0800
     10 C10        -9.7380   -0.8070   57.5054 C.3     1  ZINC000536173632   -0.1000
     11 C11        -9.7688   -0.0913   58.8312 C.2     1  ZINC000536173632    0.5200
     12 O12        -9.8238    1.1198   58.8655 O.2     1  ZINC000536173632   -0.5200
     13 N13        -9.7350   -0.7971   59.9789 N.am    1  ZINC000536173632   -0.6200
     14 C14        -9.6681   -2.2670   59.9626 C.3     1  ZINC000536173632    0.0700
     15 C15       -10.7659   -2.8113   60.8838 C.3     1  ZINC000536173632    0.0500
     16 O16       -10.6589   -2.1851   62.1645 O.3     1  ZINC000536173632   -0.3700
     17 C17       -10.8567   -0.7694   62.1422 C.3     1  ZINC000536173632    0.1200
     18 H18       -11.8344   -0.5450   61.7159 H       1  ZINC000536173632    0.0800
     19 C19       -10.7838   -0.2288   63.5470 C.ar    1  ZINC000536173632   -0.0900
     20 C20       -11.7445    0.6567   63.9974 C.ar    1  ZINC000536173632   -0.0600
     21 C21       -11.6776    1.1528   65.2862 C.ar    1  ZINC000536173632   -0.1200
     22 C22       -10.6502    0.7626   66.1243 C.ar    1  ZINC000536173632   -0.0700
     23 C23        -9.6897   -0.1241   65.6741 C.ar    1  ZINC000536173632   -0.1800
     24 C24        -8.5691   -0.5492   66.5879 C.3     1  ZINC000536173632    0.5100
     25 F25        -8.7015   -1.9095   66.8863 F       1  ZINC000536173632   -0.1800
     26 F26        -7.3415   -0.3280   65.9544 F       1  ZINC000536173632   -0.1800
     27 F27        -8.6242    0.1954   67.7710 F       1  ZINC000536173632   -0.1800
     28 C28        -9.7590   -0.6232   64.3872 C.ar    1  ZINC000536173632   -0.0500
     29 C29        -9.7578   -0.1203   61.2854 C.3     1  ZINC000536173632    0.0900
     30 C30        -8.4673    1.0063   56.3456 C.ar    1  ZINC000536173632   -0.0400
     31 H31        -4.5411    3.4213   55.0738 H       1  ZINC000536173632    0.0600
     32 H32        -5.3431    4.5834   56.1577 H       1  ZINC000536173632    0.0600
     33 H33        -4.2864    3.3199   56.8325 H       1  ZINC000536173632    0.1000
     34 H34        -9.2202    2.7675   53.5427 H       1  ZINC000536173632    0.1400
     35 H35       -11.1998    1.3111   53.6438 H       1  ZINC000536173632    0.1400
     36 H36       -11.4356   -0.3275   55.4632 H       1  ZINC000536173632    0.1300
     37 H37       -10.6675   -1.3599   57.3694 H       1  ZINC000536173632    0.1100
     38 H38        -8.8967   -1.4998   57.4859 H       1  ZINC000536173632    0.1100
     39 H39        -9.8272   -2.6304   58.9473 H       1  ZINC000536173632    0.1000
     40 H40        -8.6922   -2.5940   60.3214 H       1  ZINC000536173632    0.0800
     41 H41       -11.7433   -2.5943   60.4529 H       1  ZINC000536173632    0.0600
     42 H42       -10.6471   -3.8891   60.9944 H       1  ZINC000536173632    0.1100
     43 H43       -12.5473    0.9616   63.3425 H       1  ZINC000536173632    0.1400
     44 H44       -12.4279    1.8453   65.6379 H       1  ZINC000536173632    0.1400
     45 H45       -10.5975    1.1506   67.1309 H       1  ZINC000536173632    0.1400
     46 H46        -9.0087   -1.3158   64.0354 H       1  ZINC000536173632    0.1400
     47 H47        -8.7928   -0.2321   61.7797 H       1  ZINC000536173632    0.0800
     48 H48        -9.9786    0.9378   61.1452 H       1  ZINC000536173632    0.1100
     49 H49        -7.7039    0.9196   57.1045 H       1  ZINC000536173632    0.1400
@<TRIPOS>BOND
     1     1     2    1
     2     1    31    1
     3     1    32    1
     4     1    33    1
     5     2     3    1
     6     3     4    2
     7     3     5    1
     8     5    30   ar
     9     5     6   ar
    10     6     7   ar
    11     6    34    1
    12     7     8   ar
    13     7    35    1
    14     8     9   ar
    15     8    36    1
    16     9    10    1
    17     9    30   ar
    18    10    11    1
    19    10    37    1
    20    10    38    1
    21    11    12    2
    22    11    13   am
    23    13    29    1
    24    13    14    1
    25    14    15    1
    26    14    39    1
    27    14    40    1
    28    15    16    1
    29    15    41    1
    30    15    42    1
    31    16    17    1
    32    17    18    1
    33    17    19    1
    34    17    29    1
    35    19    28   ar
    36    19    20   ar
    37    20    21   ar
    38    20    43    1
    39    21    22   ar
    40    21    44    1
    41    22    23   ar
    42    22    45    1
    43    23    24    1
    44    23    28   ar
    45    24    25    1
    46    24    26    1
    47    24    27    1
    48    28    46    1
    49    29    47    1
    50    29    48    1
    51    30    49    1
@<TRIPOS>SUBSTRUCTURE
     1 ZINC000536173632        1 TEMP              0 ****  ****    0 ROOT


##########                                Name:    ZINC000517001504
##########                DOCK_Rotatable_Bonds:                   5
##########                         Heavy_Atoms:                  29
##########                    Molecular_Weight:             403.401
##########                DOCK_Rotatable_Bonds:                   5
##########                       Formal_Charge:          -0.0200002
##########                     HBond_Acceptors:                   7
##########                        HBond_Donors:                   0
##########                         Heavy_Atoms:                  29
##########                          Grid_Score:          -29.026108
##########                     Grid_vdw_energy:          -28.105072
##########                      Grid_es_energy:           -0.921036
##########           Internal_energy_repulsive:           32.594116

@<TRIPOS>MOLECULE
ZINC000517001504
 49 52 1 0 0
SMALL
USER_CHARGES


@<TRIPOS>ATOM
      1 O1        -10.4599   -3.7467   57.7582 O.2     1  ZINC000517001504   -0.5200
      2 C2        -11.0441   -2.6886   57.8583 C.2     1  ZINC000517001504    0.5400
      3 N3        -12.2011   -2.4922   57.1954 N.am    1  ZINC000517001504   -0.6100
      4 C4        -12.9308   -1.2191   57.3061 C.3     1  ZINC000517001504    0.0600
      5 C5        -14.3928   -1.5281   57.6478 C.3     1  ZINC000517001504    0.0500
      6 O6        -14.9062   -2.4744   56.7073 O.3     1  ZINC000517001504   -0.3700
      7 C7        -14.2413   -3.7399   56.7281 C.3     1  ZINC000517001504    0.1200
      8 H8        -14.2994   -4.1652   57.7300 H       1  ZINC000517001504    0.0800
      9 C9        -14.9030   -4.6723   55.7462 C.ar    1  ZINC000517001504   -0.0600
     10 C10       -14.9160   -6.0335   55.9867 C.ar    1  ZINC000517001504   -0.0900
     11 C11       -15.5229   -6.8887   55.0861 C.ar    1  ZINC000517001504   -0.0700
     12 C12       -16.1172   -6.3826   53.9453 C.ar    1  ZINC000517001504   -0.1800
     13 C13       -16.7785   -7.3151   52.9631 C.3     1  ZINC000517001504    0.5100
     14 F14       -17.5493   -6.5728   52.0619 F       1  ZINC000517001504   -0.1800
     15 F15       -15.7983   -8.0264   52.2629 F       1  ZINC000517001504   -0.1800
     16 F16       -17.6019   -8.2114   53.6529 F       1  ZINC000517001504   -0.1800
     17 C17       -16.1054   -5.0213   53.7054 C.ar    1  ZINC000517001504   -0.0700
     18 C18       -15.5018   -4.1657   54.6080 C.ar    1  ZINC000517001504   -0.1000
     19 C19       -12.7686   -3.5422   56.3348 C.3     1  ZINC000517001504    0.0900
     20 C20       -10.4795   -1.5957   58.7288 C.3     1  ZINC000517001504   -0.0600
     21 C21       -10.0828   -0.3699   57.9471 C.ar    1  ZINC000517001504   -0.0700
     22 C22       -10.0113   -0.4231   56.5676 C.ar    1  ZINC000517001504   -0.1200
     23 C23        -9.6474    0.7013   55.8505 C.ar    1  ZINC000517001504   -0.1100
     24 C24        -9.3555    1.8790   56.5129 C.ar    1  ZINC000517001504   -0.1100
     25 C25        -9.4279    1.9324   57.8923 C.ar    1  ZINC000517001504   -0.1100
     26 C26        -9.7960    0.8092   58.6090 C.ar    1  ZINC000517001504   -0.1000
     27 C27       -11.3371   -1.2889   59.9686 C.3     1  ZINC000517001504   -0.1600
     28 C28       -10.5194   -2.3427   60.6887 C.2     1  ZINC000517001504    0.3600
     29 O29       -10.6899   -3.0732   61.6350 O.2     1  ZINC000517001504   -0.4100
     30 C30        -9.3953   -2.0826   59.7057 C.3     1  ZINC000517001504   -0.1900
     31 H31       -12.4898   -0.6107   58.0957 H       1  ZINC000517001504    0.1000
     32 H32       -12.8806   -0.6836   56.3581 H       1  ZINC000517001504    0.0800
     33 H33       -14.4514   -1.9454   58.6530 H       1  ZINC000517001504    0.0600
     34 H34       -14.9798   -0.6109   57.5988 H       1  ZINC000517001504    0.1100
     35 H35       -14.4517   -6.4288   56.8781 H       1  ZINC000517001504    0.1400
     36 H36       -15.5324   -7.9523   55.2736 H       1  ZINC000517001504    0.1400
     37 H37       -16.5701   -4.6260   52.8143 H       1  ZINC000517001504    0.1400
     38 H38       -15.4927   -3.1021   54.4205 H       1  ZINC000517001504    0.1400
     39 H39       -12.7051   -3.2415   55.2891 H       1  ZINC000517001504    0.0800
     40 H40       -12.2208   -4.4726   56.4837 H       1  ZINC000517001504    0.1100
     41 H41       -10.2392   -1.3432   56.0501 H       1  ZINC000517001504    0.1300
     42 H42        -9.5907    0.6596   54.7728 H       1  ZINC000517001504    0.1300
     43 H43        -9.0705    2.7572   55.9527 H       1  ZINC000517001504    0.1300
     44 H44        -9.1996    2.8524   58.4099 H       1  ZINC000517001504    0.1300
     45 H45        -9.8526    0.8509   59.6868 H       1  ZINC000517001504    0.1200
     46 H46       -11.1953   -0.2817   60.3605 H       1  ZINC000517001504    0.1300
     47 H47       -12.3875   -1.5551   59.8507 H       1  ZINC000517001504    0.1100
     48 H48        -8.8840   -2.9872   59.3763 H       1  ZINC000517001504    0.1000
     49 H49        -8.7087   -1.2981   60.0237 H       1  ZINC000517001504    0.1400
@<TRIPOS>BOND
     1     1     2    2
     2     2     3   am
     3     2    20    1
     4     3    19    1
     5     3     4    1
     6     4     5    1
     7     4    31    1
     8     4    32    1
     9     5     6    1
    10     5    33    1
    11     5    34    1
    12     6     7    1
    13     7     8    1
    14     7     9    1
    15     7    19    1
    16     9    18   ar
    17     9    10   ar
    18    10    11   ar
    19    10    35    1
    20    11    12   ar
    21    11    36    1
    22    12    13    1
    23    12    17   ar
    24    13    14    1
    25    13    15    1
    26    13    16    1
    27    17    18   ar
    28    17    37    1
    29    18    38    1
    30    19    39    1
    31    19    40    1
    32    20    30    1
    33    20    21    1
    34    20    27    1
    35    21    26   ar
    36    21    22   ar
    37    22    23   ar
    38    22    41    1
    39    23    24   ar
    40    23    42    1
    41    24    25   ar
    42    24    43    1
    43    25    26   ar
    44    25    44    1
    45    26    45    1
    46    27    28    1
    47    27    46    1
    48    27    47    1
    49    28    29    2
    50    28    30    1
    51    30    48    1
    52    30    49    1
@<TRIPOS>SUBSTRUCTURE
     1 ZINC000517001504        1 TEMP              0 ****  ****    0 ROOT


##########                                Name:    ZINC000919225759
##########                DOCK_Rotatable_Bonds:                   4
##########                         Heavy_Atoms:                  27
##########                    Molecular_Weight:             375.295
##########                DOCK_Rotatable_Bonds:                   4
##########                       Formal_Charge:                0.04
##########                     HBond_Acceptors:                  11
##########                        HBond_Donors:                   0
##########                         Heavy_Atoms:                  27
##########                          Grid_Score:          -29.019644
##########                     Grid_vdw_energy:          -28.784267
##########                      Grid_es_energy:           -0.235377
##########           Internal_energy_repulsive:           16.087255

@<TRIPOS>MOLECULE
ZINC000919225759
 40 41 1 0 0
SMALL
USER_CHARGES


@<TRIPOS>ATOM
      1 C1         -8.9586   -2.2504   59.6422 C.3     1  ZINC000919225759   -0.1500
      2 C2        -10.3833   -2.2005   60.1313 C.ar    1  ZINC000919225759    0.0900
      3 C3        -11.3737   -2.9355   59.4772 C.ar    1  ZINC000919225759   -0.1200
      4 C4        -11.0295   -3.7645   58.3040 C.2     1  ZINC000919225759    0.5200
      5 O5        -10.6947   -4.9222   58.4554 O.2     1  ZINC000919225759   -0.4700
      6 O6        -11.0869   -3.2363   57.0659 O.3     1  ZINC000919225759   -0.3400
      7 C7        -11.9268   -2.0655   56.8871 C.3     1  ZINC000919225759    0.1400
      8 H8        -12.1739   -1.6433   57.8613 H       1  ZINC000919225759    0.1100
      9 C9        -11.1778   -1.0229   56.0547 C.3     1  ZINC000919225759   -0.1700
     10 C10       -13.1946   -2.4607   56.1747 C.ar    1  ZINC000919225759   -0.1000
     11 C11       -13.9711   -1.4966   55.5601 C.ar    1  ZINC000919225759   -0.0400
     12 C12       -15.1343   -1.8591   54.9066 C.ar    1  ZINC000919225759   -0.1100
     13 C13       -15.5203   -3.1856   54.8674 C.ar    1  ZINC000919225759   -0.0500
     14 C14       -14.7429   -4.1502   55.4813 C.ar    1  ZINC000919225759   -0.0400
     15 N15       -15.1565   -5.5708   55.4398 N.pl3   1  ZINC000919225759    0.0300
     16 O16       -16.1816   -5.8900   54.8648 O.2     1  ZINC000919225759   -0.1500
     17 O17       -14.4718   -6.4205   55.9807 O.2     1  ZINC000919225759   -0.1500
     18 C18       -13.5779   -3.7883   56.1311 C.ar    1  ZINC000919225759   -0.0400
     19 C19       -12.6912   -2.8839   59.9374 C.ar    1  ZINC000919225759    0.0500
     20 C20       -13.0054   -2.1082   61.0336 C.ar    1  ZINC000919225759   -0.0600
     21 N21       -14.4013   -2.0527   61.5232 N.pl3   1  ZINC000919225759    0.0300
     22 O22       -15.2708   -2.6914   60.9579 O.2     1  ZINC000919225759   -0.1300
     23 O23       -14.6804   -1.3680   62.4910 O.2     1  ZINC000919225759   -0.1300
     24 C24       -12.0188   -1.3821   61.6773 C.ar    1  ZINC000919225759    0.0400
     25 C25       -10.7106   -1.4329   61.2299 C.ar    1  ZINC000919225759   -0.0500
     26 N26        -9.6618   -0.6533   61.9250 N.pl3   1  ZINC000919225759    0.0200
     27 O27        -9.9149    0.4560   62.3597 O.2     1  ZINC000919225759   -0.1300
     28 O28        -8.5456   -1.1210   62.0622 O.2     1  ZINC000919225759   -0.1200
     29 H29        -8.4648   -3.1318   60.0513 H       1  ZINC000919225759    0.1200
     30 H30        -8.9499   -2.3016   58.5534 H       1  ZINC000919225759    0.1200
     31 H31        -8.4311   -1.3541   59.9681 H       1  ZINC000919225759    0.0900
     32 H32       -10.9307   -1.4450   55.0806 H       1  ZINC000919225759    0.0700
     33 H33       -11.8083   -0.1439   55.9204 H       1  ZINC000919225759    0.0900
     34 H34       -10.2608   -0.7370   56.5699 H       1  ZINC000919225759    0.0700
     35 H35       -13.6695   -0.4600   55.5908 H       1  ZINC000919225759    0.1500
     36 H36       -15.7415   -1.1057   54.4269 H       1  ZINC000919225759    0.1500
     37 H37       -16.4292   -3.4688   54.3574 H       1  ZINC000919225759    0.1600
     38 H38       -12.9707   -4.5417   56.6107 H       1  ZINC000919225759    0.1600
     39 H39       -13.4623   -3.4497   59.4358 H       1  ZINC000919225759    0.1900
     40 H40       -12.2704   -0.7760   62.5351 H       1  ZINC000919225759    0.1900
@<TRIPOS>BOND
     1     1     2    1
     2     1    29    1
     3     1    30    1
     4     1    31    1
     5     2    25   ar
     6     2     3   ar
     7     3     4    1
     8     3    19   ar
     9     4     5    2
    10     4     6    1
    11     6     7    1
    12     7     8    1
    13     7     9    1
    14     7    10    1
    15     9    32    1
    16     9    33    1
    17     9    34    1
    18    10    18   ar
    19    10    11   ar
    20    11    12   ar
    21    11    35    1
    22    12    13   ar
    23    12    36    1
    24    13    14   ar
    25    13    37    1
    26    14    15    1
    27    14    18   ar
    28    15    16    2
    29    15    17    2
    30    18    38    1
    31    19    20   ar
    32    19    39    1
    33    20    21    1
    34    20    24   ar
    35    21    22    2
    36    21    23    2
    37    24    25   ar
    38    24    40    1
    39    25    26    1
    40    26    27    2
    41    26    28    2
@<TRIPOS>SUBSTRUCTURE
     1 ZINC000919225759        1 TEMP              0 ****  ****    0 ROOT


##########                                Name:    ZINC000583220082
##########                DOCK_Rotatable_Bonds:                   9
##########                         Heavy_Atoms:                  29
##########                    Molecular_Weight:             417.492
##########                DOCK_Rotatable_Bonds:                   9
##########                       Formal_Charge:          -0.0400006
##########                     HBond_Acceptors:                  11
##########                        HBond_Donors:                   3
##########                         Heavy_Atoms:                  29
##########                          Grid_Score:          -29.007711
##########                     Grid_vdw_energy:          -29.218767
##########                      Grid_es_energy:            0.211056
##########           Internal_energy_repulsive:           15.320225

@<TRIPOS>MOLECULE
ZINC000583220082
 52 54 1 0 0
SMALL
USER_CHARGES


@<TRIPOS>ATOM
      1 C1         -3.3038    3.1578   52.3133 C.3     1  ZINC000583220082    0.0800
      2 N2         -4.6045    3.7926   52.5404 N.am    1  ZINC000583220082   -0.6300
      3 C3         -4.7078    5.2529   52.5925 C.3     1  ZINC000583220082    0.0800
      4 C4         -5.7062    3.0329   52.7012 C.2     1  ZINC000583220082    0.5100
      5 O5         -5.6204    1.8238   52.6595 O.2     1  ZINC000583220082   -0.5300
      6 C6         -7.0444    3.6858   52.9329 C.3     1  ZINC000583220082   -0.1000
      7 C7         -7.8743    2.8204   53.8458 C.ar    1  ZINC000583220082   -0.0800
      8 C8         -8.6068    1.7702   53.3231 C.ar    1  ZINC000583220082   -0.0800
      9 C9         -9.3684    0.9752   54.1568 C.ar    1  ZINC000583220082   -0.1400
     10 C10        -9.3976    1.2309   55.5220 C.ar    1  ZINC000583220082    0.1400
     11 N11       -10.1667    0.4282   56.3685 N.am    1  ZINC000583220082   -0.6400
     12 C12        -9.5681   -0.3134   57.3214 C.2     1  ZINC000583220082    0.5100
     13 O13        -8.3610   -0.2839   57.4445 O.2     1  ZINC000583220082   -0.4900
     14 C14       -10.3903   -1.1714   58.2262 C.2     1  ZINC000583220082    0.5100
     15 O15       -10.6523   -2.3128   57.9076 O.2     1  ZINC000583220082   -0.5100
     16 N16       -10.8412   -0.6782   59.3966 N.am    1  ZINC000583220082   -0.5800
     17 C17       -11.6470   -1.5080   60.3051 C.3     1  ZINC000583220082    0.0600
     18 C18       -11.0259   -1.4420   61.7044 C.3     1  ZINC000583220082    0.0300
     19 N19       -10.8841   -0.0367   62.1080 N.3     1  ZINC000583220082   -0.4300
     20 C20       -10.4785    0.0618   63.4262 C.2     1  ZINC000583220082    0.2900
     21 N21        -9.5153   -0.6114   64.0194 N.2     1  ZINC000583220082   -0.5700
     22 C22        -9.3051   -0.3485   65.2927 C.2     1  ZINC000583220082    0.5400
     23 N23        -8.3081   -1.0076   66.0107 N.pl3   1  ZINC000583220082   -0.8200
     24 N24       -10.0637    0.5517   65.8591 N.2     1  ZINC000583220082   -0.5500
     25 S25       -11.1194    1.0973   64.6446 S.3     1  ZINC000583220082    0.2000
     26 C26        -9.9628    0.6829   61.2185 C.3     1  ZINC000583220082    0.0500
     27 C27       -10.5353    0.7021   59.8021 C.3     1  ZINC000583220082    0.1100
     28 C28        -8.6602    2.2865   56.0437 C.ar    1  ZINC000583220082   -0.1200
     29 C29        -7.8971    3.0745   55.2050 C.ar    1  ZINC000583220082   -0.0800
     30 H30        -2.8162    2.9758   53.2711 H       1  ZINC000583220082    0.0500
     31 H31        -3.4475    2.2107   51.7931 H       1  ZINC000583220082    0.0800
     32 H32        -2.6800    3.8145   51.7069 H       1  ZINC000583220082    0.0700
     33 H33        -3.7217    5.6925   52.4426 H       1  ZINC000583220082    0.0800
     34 H34        -5.3822    5.5977   51.8087 H       1  ZINC000583220082    0.0600
     35 H35        -5.0964    5.5552   53.5650 H       1  ZINC000583220082    0.0600
     36 H36        -6.8972    4.6628   53.3932 H       1  ZINC000583220082    0.1000
     37 H37        -7.5594    3.8070   51.9799 H       1  ZINC000583220082    0.1000
     38 H38        -8.5835    1.5719   52.2617 H       1  ZINC000583220082    0.1300
     39 H39        -9.9407    0.1556   53.7479 H       1  ZINC000583220082    0.1300
     40 H40       -11.1315    0.4046   56.2702 H       1  ZINC000583220082    0.4200
     41 H41       -12.6681   -1.1278   60.3395 H       1  ZINC000583220082    0.0900
     42 H42       -11.6491   -2.5397   59.9537 H       1  ZINC000583220082    0.1700
     43 H43       -11.6709   -1.9608   62.4136 H       1  ZINC000583220082    0.1100
     44 H44       -10.0449   -1.9168   61.6897 H       1  ZINC000583220082    0.0700
     45 H45        -7.3786   -0.7573   65.8913 H       1  ZINC000583220082    0.4200
     46 H46        -8.5441   -1.7163   66.6296 H       1  ZINC000583220082    0.4200
     47 H47        -9.8370    1.7052   61.5752 H       1  ZINC000583220082    0.1100
     48 H48        -8.9967    0.1784   61.2105 H       1  ZINC000583220082    0.0600
     49 H49        -9.8046    1.1330   59.1176 H       1  ZINC000583220082    0.1100
     50 H50       -11.4506    1.2938   59.7851 H       1  ZINC000583220082    0.0900
     51 H51        -8.6807    2.4881   57.1046 H       1  ZINC000583220082    0.1400
     52 H52        -7.3236    3.8952   55.6098 H       1  ZINC000583220082    0.1300
@<TRIPOS>BOND
     1     1     2    1
     2     1    30    1
     3     1    31    1
     4     1    32    1
     5     2     3    1
     6     2     4   am
     7     3    33    1
     8     3    34    1
     9     3    35    1
    10     4     5    2
    11     4     6    1
    12     6     7    1
    13     6    36    1
    14     6    37    1
    15     7    29   ar
    16     7     8   ar
    17     8     9   ar
    18     8    38    1
    19     9    10   ar
    20     9    39    1
    21    10    11    1
    22    10    28   ar
    23    11    12   am
    24    11    40    1
    25    12    13    2
    26    12    14    1
    27    14    15    2
    28    14    16   am
    29    16    27    1
    30    16    17    1
    31    17    18    1
    32    17    41    1
    33    17    42    1
    34    18    19    1
    35    18    43    1
    36    18    44    1
    37    19    20    1
    38    19    26    1
    39    20    25    1
    40    20    21    2
    41    21    22    1
    42    22    23    1
    43    22    24    2
    44    23    45    1
    45    23    46    1
    46    24    25    1
    47    26    27    1
    48    26    47    1
    49    26    48    1
    50    27    49    1
    51    27    50    1
    52    28    29   ar
    53    28    51    1
    54    29    52    1
@<TRIPOS>SUBSTRUCTURE
     1 ZINC000583220082        1 TEMP              0 ****  ****    0 ROOT


##########                                Name:    ZINC001087843226
##########                DOCK_Rotatable_Bonds:                   6
##########                         Heavy_Atoms:                  27
##########                    Molecular_Weight:             368.479
##########                DOCK_Rotatable_Bonds:                   6
##########                       Formal_Charge:        -4.47035e-07
##########                     HBond_Acceptors:                   6
##########                        HBond_Donors:                   1
##########                         Heavy_Atoms:                  27
##########                          Grid_Score:          -29.000452
##########                     Grid_vdw_energy:          -26.652184
##########                      Grid_es_energy:           -2.348268
##########           Internal_energy_repulsive:           30.372900

@<TRIPOS>MOLECULE
ZINC001087843226
 55 58 1 0 0
SMALL
USER_CHARGES


@<TRIPOS>ATOM
      1 C1        -12.6916    1.4553   61.1976 C.3     1  ZINC001087843226   -0.1500
      2 C2        -11.8332    0.8906   62.3312 C.3     1  ZINC001087843226   -0.1500
      3 C3        -10.4690    0.4729   61.7785 C.3     1  ZINC001087843226    0.0700
      4 H4         -9.9908    1.3224   61.2909 H       1  ZINC001087843226    0.1000
      5 C5        -10.6425   -0.6821   60.7698 C.3     1  ZINC001087843226    0.1300
      6 H6        -11.5723   -1.2196   60.9556 H       1  ZINC001087843226    0.1000
      7 N7        -10.6033   -0.1790   59.3944 N.am    1  ZINC001087843226   -0.7200
      8 C8        -10.9907   -0.9716   58.3756 C.2     1  ZINC001087843226    0.5600
      9 O9        -11.3713   -2.1044   58.5977 O.2     1  ZINC001087843226   -0.5300
     10 C10       -10.9528   -0.4632   56.9878 C.ar    1  ZINC001087843226   -0.1400
     11 C11       -11.9131   -0.8783   56.0658 C.ar    1  ZINC001087843226   -0.0800
     12 C12       -11.8724   -0.4003   54.7721 C.ar    1  ZINC001087843226   -0.1300
     13 C13       -10.8832    0.4871   54.3920 C.ar    1  ZINC001087843226   -0.0400
     14 C14       -10.8465    1.0042   52.9770 C.3     1  ZINC001087843226   -0.1200
     15 C15        -9.9246    0.9055   55.3023 C.ar    1  ZINC001087843226   -0.1100
     16 C16        -9.9574    0.4388   56.5998 C.ar    1  ZINC001087843226   -0.0300
     17 C17        -8.8137    1.0374   57.3900 C.3     1  ZINC001087843226   -0.0800
     18 C18        -7.8285    1.5744   56.3300 C.3     1  ZINC001087843226   -0.1200
     19 C19        -8.7591    1.8563   55.1294 C.3     1  ZINC001087843226   -0.0800
     20 C20        -9.4173   -1.5880   61.0617 C.3     1  ZINC001087843226   -0.1400
     21 C21        -9.2772   -1.4395   62.5973 C.3     1  ZINC001087843226    0.0400
     22 N22        -9.6148   -0.0233   62.8731 N.3     1  ZINC001087843226   -0.5100
     23 C23       -10.2895    0.1140   64.1708 C.3     1  ZINC001087843226    0.1100
     24 C24        -9.3840   -0.3925   65.2638 C.2     1  ZINC001087843226    0.0800
     25 N25        -9.2467   -1.6381   65.6083 N.2     1  ZINC001087843226   -0.2700
     26 O26        -8.3065   -1.6838   66.6697 O.3     1  ZINC001087843226    0.0300
     27 N27        -7.9091   -0.3432   66.9105 N.2     1  ZINC001087843226   -0.2800
     28 C28        -8.5500    0.4098   66.0673 C.2     1  ZINC001087843226    0.0900
     29 C29        -8.4282    1.9088   65.9713 C.3     1  ZINC001087843226   -0.0900
     30 H30       -13.6864    1.6889   61.5770 H       1  ZINC001087843226    0.0600
     31 H31       -12.2288    2.3623   60.8087 H       1  ZINC001087843226    0.0600
     32 H32       -12.7711    0.7171   60.3996 H       1  ZINC001087843226    0.0600
     33 H33       -11.6965    1.6530   63.0981 H       1  ZINC001087843226    0.0800
     34 H34       -12.3302    0.0231   62.7657 H       1  ZINC001087843226    0.0700
     35 H35       -10.2984    0.7247   59.2172 H       1  ZINC001087843226    0.4000
     36 H36       -12.6857   -1.5719   56.3631 H       1  ZINC001087843226    0.1300
     37 H37       -12.6143   -0.7202   54.0555 H       1  ZINC001087843226    0.1300
     38 H38       -11.4394    1.9162   52.9080 H       1  ZINC001087843226    0.0800
     39 H39        -9.8157    1.2188   52.6952 H       1  ZINC001087843226    0.0700
     40 H40       -11.2580    0.2517   52.3043 H       1  ZINC001087843226    0.0700
     41 H41        -9.1738    1.8518   58.0187 H       1  ZINC001087843226    0.0800
     42 H42        -8.3336    0.2719   57.9995 H       1  ZINC001087843226    0.0900
     43 H43        -7.3528    2.4931   56.6732 H       1  ZINC001087843226    0.0800
     44 H44        -7.0823    0.8210   56.0778 H       1  ZINC001087843226    0.0700
     45 H45        -8.2416    1.6483   54.1929 H       1  ZINC001087843226    0.0800
     46 H46        -9.1019    2.8907   55.1514 H       1  ZINC001087843226    0.0800
     47 H47        -9.6224   -2.6226   60.7866 H       1  ZINC001087843226    0.0800
     48 H48        -8.5282   -1.2187   60.5509 H       1  ZINC001087843226    0.0800
     49 H49        -9.9745   -2.1036   63.1080 H       1  ZINC001087843226    0.0600
     50 H50        -8.2539   -1.6514   62.9071 H       1  ZINC001087843226    0.0800
     51 H51       -10.5231    1.1635   64.3497 H       1  ZINC001087843226    0.1200
     52 H52       -11.2115   -0.4675   64.1642 H       1  ZINC001087843226    0.0700
     53 H53        -7.6988    2.1656   65.2030 H       1  ZINC001087843226    0.1000
     54 H54        -9.3964    2.3360   65.7101 H       1  ZINC001087843226    0.0900
     55 H55        -8.1013    2.3090   66.9309 H       1  ZINC001087843226    0.0900
@<TRIPOS>BOND
     1     1     2    1
     2     1    30    1
     3     1    31    1
     4     1    32    1
     5     2     3    1
     6     2    33    1
     7     2    34    1
     8     3     4    1
     9     3    22    1
    10     3     5    1
    11     5     6    1
    12     5     7    1
    13     5    20    1
    14     7     8   am
    15     7    35    1
    16     8     9    2
    17     8    10    1
    18    10    16   ar
    19    10    11   ar
    20    11    12   ar
    21    11    36    1
    22    12    13   ar
    23    12    37    1
    24    13    14    1
    25    13    15   ar
    26    14    38    1
    27    14    39    1
    28    14    40    1
    29    15    19    1
    30    15    16   ar
    31    16    17    1
    32    17    18    1
    33    17    41    1
    34    17    42    1
    35    18    19    1
    36    18    43    1
    37    18    44    1
    38    19    45    1
    39    19    46    1
    40    20    21    1
    41    20    47    1
    42    20    48    1
    43    21    22    1
    44    21    49    1
    45    21    50    1
    46    22    23    1
    47    23    24    1
    48    23    51    1
    49    23    52    1
    50    24    28    1
    51    24    25    2
    52    25    26    1
    53    26    27    1
    54    27    28    2
    55    28    29    1
    56    29    53    1
    57    29    54    1
    58    29    55    1
@<TRIPOS>SUBSTRUCTURE
     1 ZINC001087843226        1 TEMP              0 ****  ****    0 ROOT


##########                                Name:    ZINC001570985666
##########                DOCK_Rotatable_Bonds:                   7
##########                         Heavy_Atoms:                  26
##########                    Molecular_Weight:             357.415
##########                DOCK_Rotatable_Bonds:                   7
##########                       Formal_Charge:          -0.0100001
##########                     HBond_Acceptors:                   9
##########                        HBond_Donors:                   3
##########                         Heavy_Atoms:                  26
##########                          Grid_Score:          -28.976303
##########                     Grid_vdw_energy:          -28.000235
##########                      Grid_es_energy:           -0.976069
##########           Internal_energy_repulsive:           22.184719

@<TRIPOS>MOLECULE
ZINC001570985666
 49 52 1 0 0
SMALL
USER_CHARGES


@<TRIPOS>ATOM
      1 C1         -1.1580    0.5807   48.9159 C.3     1  ZINC001570985666   -0.1600
      2 C2          0.0860    1.3675   48.4983 C.3     1  ZINC001570985666    0.1300
      3 H3          0.9398    0.6950   48.4169 H       1  ZINC001570985666    0.0800
      4 C4          0.3830    2.4696   49.5371 C.3     1  ZINC001570985666    0.1400
      5 H5         -0.5190    2.7312   50.0905 H       1  ZINC001570985666    0.1100
      6 N6          1.4458    2.0463   50.4523 N.am    1  ZINC001570985666   -0.7200
      7 C7          1.6842    2.7473   51.5783 C.2     1  ZINC001570985666    0.6000
      8 O8          1.0180    3.7322   51.8341 O.2     1  ZINC001570985666   -0.5300
      9 C9          2.7517    2.3206   52.4995 C.2     1  ZINC001570985666   -0.2300
     10 C10         3.1734    2.9855   53.6307 C.2     1  ZINC001570985666    0.0700
     11 N11         4.1661    2.2699   54.1956 N.pl3   1  ZINC001570985666   -0.5200
     12 C12         4.3970    1.1439   53.4444 C.2     1  ZINC001570985666    0.0600
     13 C13         5.4089    0.1034   53.7341 C.2     1  ZINC001570985666    0.2500
     14 N14         6.2452    0.0792   54.7546 N.2     1  ZINC001570985666   -0.3100
     15 N15         6.9617   -0.9871   54.6516 N.pl3   1  ZINC001570985666   -0.2200
     16 N16         6.6070   -1.6393   53.6000 N.2     1  ZINC001570985666   -0.0400
     17 N17         5.6510   -1.0024   53.0137 N.2     1  ZINC001570985666   -0.2600
     18 C18         3.5372    1.1435   52.3946 C.2     1  ZINC001570985666   -0.0600
     19 C19         0.8518    3.6587   48.6576 C.3     1  ZINC001570985666   -0.1500
     20 C20        -0.0449    3.4921   47.4055 C.3     1  ZINC001570985666    0.1000
     21 N21        -0.1521    2.0317   47.2085 N.am    1  ZINC001570985666   -0.6200
     22 C22        -0.4244    1.4145   46.0417 C.2     1  ZINC001570985666    0.5300
     23 O23        -0.4896    0.2043   45.9968 O.2     1  ZINC001570985666   -0.5300
     24 C24        -0.6481    2.2280   44.7932 C.3     1  ZINC001570985666   -0.1300
     25 C25         0.6513    2.2942   43.9880 C.3     1  ZINC001570985666   -0.1000
     26 C26         1.9184    2.2278   44.8569 C.3     1  ZINC001570985666   -0.1300
     27 C27         2.5222    1.3243   43.7687 C.3     1  ZINC001570985666   -0.1400
     28 C28         1.0800    0.9403   43.3979 C.3     1  ZINC001570985666   -0.1400
     29 H29        -1.3649   -0.1918   48.1752 H       1  ZINC001570985666    0.0700
     30 H30        -0.9853    0.1163   49.8867 H       1  ZINC001570985666    0.0700
     31 H31        -2.0102    1.2570   48.9832 H       1  ZINC001570985666    0.0600
     32 H32         1.9779    1.2615   50.2477 H       1  ZINC001570985666    0.4000
     33 H33         2.7771    3.9196   54.0005 H       1  ZINC001570985666    0.1800
     34 H34         4.6425    2.5123   55.0049 H       1  ZINC001570985666    0.4300
     35 H35         7.6592   -1.2561   55.2697 H       1  ZINC001570985666    0.4800
     36 H36         3.4683    0.3924   51.6215 H       1  ZINC001570985666    0.1600
     37 H37         0.6589    4.6105   49.1526 H       1  ZINC001570985666    0.0900
     38 H38         1.9062    3.5614   48.3989 H       1  ZINC001570985666    0.0800
     39 H39        -1.0291    3.9253   47.5834 H       1  ZINC001570985666    0.0800
     40 H40         0.4242    3.9570   46.5384 H       1  ZINC001570985666    0.0800
     41 H41        -1.4261    1.7609   44.1895 H       1  ZINC001570985666    0.0900
     42 H42        -0.9572    3.2367   45.0673 H       1  ZINC001570985666    0.0900
     43 H43         0.6593    3.1084   43.2634 H       1  ZINC001570985666    0.1000
     44 H44         2.4274    3.1861   44.9606 H       1  ZINC001570985666    0.0700
     45 H45         1.7679    1.7218   45.8105 H       1  ZINC001570985666    0.0800
     46 H46         3.0430    1.8737   42.9845 H       1  ZINC001570985666    0.0800
     47 H47         3.1068    0.4942   44.1652 H       1  ZINC001570985666    0.0700
     48 H48         0.7003    0.0823   43.9528 H       1  ZINC001570985666    0.0800
     49 H49         0.9121    0.8592   42.3241 H       1  ZINC001570985666    0.0700
@<TRIPOS>BOND
     1     1     2    1
     2     1    29    1
     3     1    30    1
     4     1    31    1
     5     2     3    1
     6     2    21    1
     7     2     4    1
     8     4     5    1
     9     4     6    1
    10     4    19    1
    11     6     7   am
    12     6    32    1
    13     7     8    2
    14     7     9    1
    15     9    18    1
    16     9    10    2
    17    10    11    1
    18    10    33    1
    19    11    12    1
    20    11    34    1
    21    12    13    1
    22    12    18    2
    23    13    17    1
    24    13    14    2
    25    14    15    1
    26    15    16    1
    27    15    35    1
    28    16    17    2
    29    18    36    1
    30    19    20    1
    31    19    37    1
    32    19    38    1
    33    20    21    1
    34    20    39    1
    35    20    40    1
    36    21    22   am
    37    22    23    2
    38    22    24    1
    39    24    25    1
    40    24    41    1
    41    24    42    1
    42    25    28    1
    43    25    26    1
    44    25    43    1
    45    26    27    1
    46    26    44    1
    47    26    45    1
    48    27    28    1
    49    27    46    1
    50    27    47    1
    51    28    48    1
    52    28    49    1
@<TRIPOS>SUBSTRUCTURE
     1 ZINC001570985666        1 TEMP              0 ****  ****    0 ROOT


##########                                Name:    ZINC001492779707
##########                DOCK_Rotatable_Bonds:                   8
##########                         Heavy_Atoms:                  27
##########                    Molecular_Weight:             374.483
##########                DOCK_Rotatable_Bonds:                   8
##########                       Formal_Charge:           0.0199998
##########                     HBond_Acceptors:                   7
##########                        HBond_Donors:                   0
##########                         Heavy_Atoms:                  27
##########                          Grid_Score:          -28.961628
##########                     Grid_vdw_energy:          -28.157583
##########                      Grid_es_energy:           -0.804045
##########           Internal_energy_repulsive:            8.965084

@<TRIPOS>MOLECULE
ZINC001492779707
 57 59 1 0 0
SMALL
USER_CHARGES


@<TRIPOS>ATOM
      1 C1        -10.5514    0.9048   55.5445 C.3     1  ZINC001492779707   -0.0700
      2 C2        -10.0747    0.0214   56.6684 C.2     1  ZINC001492779707    0.1800
      3 N3         -8.8897    0.0327   57.2101 N.2     1  ZINC001492779707   -0.2900
      4 N4         -8.8227   -0.8501   58.1420 N.2     1  ZINC001492779707   -0.3100
      5 C5         -9.9708   -1.4770   58.2455 C.2     1  ZINC001492779707    0.3400
      6 N6        -10.2776   -2.4920   59.1378 N.3     1  ZINC001492779707   -0.4600
      7 C7         -9.6397   -3.7539   58.7393 C.3     1  ZINC001492779707    0.0300
      8 C8         -9.8994   -2.1207   60.5079 C.3     1  ZINC001492779707    0.1100
      9 C9        -10.9955   -1.2897   61.1237 C.ar    1  ZINC001492779707   -0.0400
     10 C10       -10.7965    0.0601   61.3467 C.ar    1  ZINC001492779707   -0.1300
     11 C11       -11.8003    0.8253   61.9117 C.ar    1  ZINC001492779707   -0.0800
     12 C12       -13.0046    0.2425   62.2547 C.ar    1  ZINC001492779707   -0.2100
     13 C13       -13.2067   -1.1121   62.0319 C.ar    1  ZINC001492779707    0.1300
     14 O14       -14.3910   -1.6879   62.3682 O.3     1  ZINC001492779707   -0.3100
     15 C15       -15.4623   -1.5631   61.4306 C.3     1  ZINC001492779707    0.0800
     16 C16       -15.8191   -2.9443   60.8773 C.3     1  ZINC001492779707   -0.1500
     17 C17       -16.6838   -0.9623   62.1289 C.3     1  ZINC001492779707   -0.1800
     18 C18       -12.2004   -1.8763   61.4600 C.ar    1  ZINC001492779707   -0.1400
     19 N19       -10.8073   -0.9367   57.3127 N.pl3   1  ZINC001492779707   -0.4600
     20 C20       -12.1988   -1.3120   57.0494 C.3     1  ZINC001492779707    0.1200
     21 C21       -12.2327   -2.5131   56.1023 C.3     1  ZINC001492779707   -0.1200
     22 C22       -13.6413   -3.1103   56.0863 C.3     1  ZINC001492779707    0.0600
     23 H23       -13.9046   -3.4494   57.0882 H       1  ZINC001492779707    0.0800
     24 C24       -14.6427   -2.0471   55.6261 C.3     1  ZINC001492779707    0.0300
     25 O25       -15.9380   -2.6429   55.5065 O.3     1  ZINC001492779707   -0.3800
     26 C26       -15.9781   -3.7490   54.6000 C.3     1  ZINC001492779707    0.0200
     27 C27       -14.9767   -4.8122   55.0602 C.3     1  ZINC001492779707    0.0300
     28 O28       -13.6809   -4.2174   55.1808 O.3     1  ZINC001492779707   -0.3800
     29 H29       -10.9807    1.8179   55.9572 H       1  ZINC001492779707    0.0900
     30 H30        -9.7100    1.1581   54.8995 H       1  ZINC001492779707    0.1000
     31 H31       -11.3085    0.3776   54.9640 H       1  ZINC001492779707    0.0800
     32 H32        -8.5573   -3.6562   58.8232 H       1  ZINC001492779707    0.0500
     33 H33        -9.9836   -4.5567   59.3914 H       1  ZINC001492779707    0.0900
     34 H34        -9.9048   -3.9850   57.7076 H       1  ZINC001492779707    0.0700
     35 H35        -9.7506   -3.0229   61.1010 H       1  ZINC001492779707    0.0700
     36 H36        -8.9748   -1.5438   60.4859 H       1  ZINC001492779707    0.0900
     37 H37        -9.8554    0.5176   61.0795 H       1  ZINC001492779707    0.1200
     38 H38       -11.6422    1.8795   62.0851 H       1  ZINC001492779707    0.1300
     39 H39       -13.7881    0.8404   62.6962 H       1  ZINC001492779707    0.1300
     40 H40       -15.1548   -0.9123   60.6121 H       1  ZINC001492779707    0.0700
     41 H41       -16.1265   -3.5952   61.6959 H       1  ZINC001492779707    0.0700
     42 H42       -16.6362   -2.8492   60.1622 H       1  ZINC001492779707    0.0800
     43 H43       -14.9488   -3.3724   60.3800 H       1  ZINC001492779707    0.0700
     44 H44       -16.4296    0.0217   62.5230 H       1  ZINC001492779707    0.0600
     45 H45       -17.5009   -0.8672   61.4136 H       1  ZINC001492779707    0.0700
     46 H46       -16.9912   -1.6131   62.9473 H       1  ZINC001492779707    0.0700
     47 H47       -12.3553   -2.9308   61.2856 H       1  ZINC001492779707    0.1300
     48 H48       -12.6880   -1.5747   57.9874 H       1  ZINC001492779707    0.1000
     49 H49       -12.7207   -0.4724   56.5902 H       1  ZINC001492779707    0.1000
     50 H50       -11.9634   -2.1906   55.0966 H       1  ZINC001492779707    0.0900
     51 H51       -11.5227   -3.2659   56.4448 H       1  ZINC001492779707    0.0800
     52 H52       -14.6790   -1.2399   56.3578 H       1  ZINC001492779707    0.1100
     53 H53       -14.3338   -1.6499   54.6592 H       1  ZINC001492779707    0.0600
     54 H54       -16.9816   -4.1744   54.5886 H       1  ZINC001492779707    0.1100
     55 H55       -15.7141   -3.4091   53.5986 H       1  ZINC001492779707    0.0600
     56 H56       -15.2856   -5.2094   56.0271 H       1  ZINC001492779707    0.0600
     57 H57       -14.9403   -5.6194   54.3285 H       1  ZINC001492779707    0.1100
@<TRIPOS>BOND
     1     1     2    1
     2     1    29    1
     3     1    30    1
     4     1    31    1
     5     2    19    1
     6     2     3    2
     7     3     4    1
     8     4     5    2
     9     5     6    1
    10     5    19    1
    11     6     7    1
    12     6     8    1
    13     7    32    1
    14     7    33    1
    15     7    34    1
    16     8     9    1
    17     8    35    1
    18     8    36    1
    19     9    18   ar
    20     9    10   ar
    21    10    11   ar
    22    10    37    1
    23    11    12   ar
    24    11    38    1
    25    12    13   ar
    26    12    39    1
    27    13    14    1
    28    13    18   ar
    29    14    15    1
    30    15    16    1
    31    15    17    1
    32    15    40    1
    33    16    41    1
    34    16    42    1
    35    16    43    1
    36    17    44    1
    37    17    45    1
    38    17    46    1
    39    18    47    1
    40    19    20    1
    41    20    21    1
    42    20    48    1
    43    20    49    1
    44    21    22    1
    45    21    50    1
    46    21    51    1
    47    22    23    1
    48    22    28    1
    49    22    24    1
    50    24    25    1
    51    24    52    1
    52    24    53    1
    53    25    26    1
    54    26    27    1
    55    26    54    1
    56    26    55    1
    57    27    28    1
    58    27    56    1
    59    27    57    1
@<TRIPOS>SUBSTRUCTURE
     1 ZINC001492779707        1 TEMP              0 ****  ****    0 ROOT


##########                                Name:    ZINC000022858610
##########                DOCK_Rotatable_Bonds:                   9
##########                         Heavy_Atoms:                  26
##########                    Molecular_Weight:             369.343
##########                DOCK_Rotatable_Bonds:                   9
##########                       Formal_Charge:          0.00999956
##########                     HBond_Acceptors:                   9
##########                        HBond_Donors:                   2
##########                         Heavy_Atoms:                  26
##########                          Grid_Score:          -28.958370
##########                     Grid_vdw_energy:          -21.977364
##########                      Grid_es_energy:           -6.981007
##########           Internal_energy_repulsive:           39.600986

@<TRIPOS>MOLECULE
ZINC000022858610
 44 45 1 0 0
SMALL
USER_CHARGES


@<TRIPOS>ATOM
      1 C1         -6.3943    4.9752   66.0887 C.3     1  <0>         0.0100
      2 N2         -5.7950    4.2126   64.9855 N.3     1  <0>        -0.5300
      3 C3         -5.0508    5.0960   64.0779 C.3     1  <0>         0.0200
      4 C4         -4.9348    3.1366   65.4955 C.3     1  <0>         0.1500
      5 H5         -4.5040    2.5879   64.6581 H       1  <0>         0.1200
      6 C6         -5.7665    2.1833   66.3560 C.3     1  <0>         0.1300
      7 N7         -6.8153    1.5735   65.5350 N.am    1  <0>        -0.6800
      8 C8         -7.2811    0.3460   65.8394 C.2     1  <0>         0.5100
      9 O9         -6.8327   -0.2536   66.7945 O.2     1  <0>        -0.5100
     10 C10        -8.3491   -0.2765   65.0012 C.2     1  <0>         0.5200
     11 O11        -8.8214   -1.3488   65.3179 O.2     1  <0>        -0.4900
     12 N12        -8.7885    0.3526   63.8931 N.am    1  <0>        -0.6500
     13 C13        -9.7878   -0.2298   63.1090 C.ar    1  <0>         0.1900
     14 C14        -9.4548   -1.1710   62.1432 C.ar    1  <0>        -0.1200
     15 C15       -10.4451   -1.7446   61.3699 C.ar    1  <0>        -0.0700
     16 C16       -11.7667   -1.3830   61.5564 C.ar    1  <0>        -0.1300
     17 C17       -12.1016   -0.4458   62.5168 C.ar    1  <0>        -0.0500
     18 C18       -11.1174    0.1271   63.2977 C.ar    1  <0>        -0.2100
     19 C19       -11.4833    1.1481   64.3439 C.3     1  <0>         0.5100
     20 F20       -10.8911    2.3748   64.0255 F       1  <0>        -0.1700
     21 F21       -12.8737    1.2977   64.3833 F       1  <0>        -0.1800
     22 F22       -11.0248    0.7195   65.5942 F       1  <0>        -0.1700
     23 C23        -3.8287    3.7304   66.3293 C.2     1  <0>        -0.0500
     24 C24        -2.5941    3.2177   66.4785 C.2     1  <0>        -0.1900
     25 C25        -1.8893    4.0907   67.3386 C.2     1  <0>        -0.2100
     26 C26        -2.7352    5.0848   67.6636 C.2     1  <0>        -0.0400
     27 O27        -3.9066    4.8644   67.0447 O.3     1  <0>        -0.1700
     28 H28        -7.1657    5.6375   65.6957 H       1  <0>         0.0700
     29 H29        -6.8384    4.2866   66.8075 H       1  <0>         0.0700
     30 H30        -5.6234    5.5677   66.5816 H       1  <0>         0.0500
     31 H31        -4.2550    5.5965   64.6295 H       1  <0>         0.0300
     32 H32        -4.6176    4.5057   63.2704 H       1  <0>         0.0700
     33 H33        -5.7277    5.8414   63.6604 H       1  <0>         0.0800
     34 H34        -5.1219    1.4029   66.7606 H       1  <0>         0.0900
     35 H35        -6.2231    2.7383   67.1755 H       1  <0>         0.0800
     36 H36        -7.1746    2.0532   64.7723 H       1  <0>         0.4200
     37 H37        -8.4112    1.2095   63.6400 H       1  <0>         0.4300
     38 H38        -8.4228   -1.4537   61.9969 H       1  <0>         0.1500
     39 H39       -10.1870   -2.4763   60.6186 H       1  <0>         0.1400
     40 H40       -12.5390   -1.8331   60.9503 H       1  <0>         0.1400
     41 H41       -13.1347   -0.1650   62.6593 H       1  <0>         0.1500
     42 H42        -2.2145    2.3124   66.0282 H       1  <0>         0.1500
     43 H43        -0.8676    3.9805   67.6713 H       1  <0>         0.1500
     44 H44        -2.5094    5.9205   68.3093 H       1  <0>         0.2000
@<TRIPOS>BOND
     1     1     2    1
     2     1    28    1
     3     1    29    1
     4     1    30    1
     5     2     3    1
     6     2     4    1
     7     3    31    1
     8     3    32    1
     9     3    33    1
    10     4     5    1
    11     4     6    1
    12     4    23    1
    13     6     7    1
    14     6    34    1
    15     6    35    1
    16     7     8   am
    17     7    36    1
    18     8     9    2
    19     8    10    1
    20    10    11    2
    21    10    12   am
    22    12    13    1
    23    12    37    1
    24    13    18   ar
    25    13    14   ar
    26    14    15   ar
    27    14    38    1
    28    15    16   ar
    29    15    39    1
    30    16    17   ar
    31    16    40    1
    32    17    18   ar
    33    17    41    1
    34    18    19    1
    35    19    20    1
    36    19    21    1
    37    19    22    1
    38    23    27    1
    39    23    24    2
    40    24    25    1
    41    24    42    1
    42    25    26    2
    43    25    43    1
    44    26    27    1
    45    26    44    1
@<TRIPOS>SUBSTRUCTURE
     1 <0>         1 TEMP              0 ****  ****    0 ROOT


##########                                Name:    ZINC000546115054
##########                DOCK_Rotatable_Bonds:                  10
##########                         Heavy_Atoms:                  26
##########                    Molecular_Weight:             363.457
##########                DOCK_Rotatable_Bonds:                  10
##########                       Formal_Charge:        -4.39584e-07
##########                     HBond_Acceptors:                   7
##########                        HBond_Donors:                   2
##########                         Heavy_Atoms:                  26
##########                          Grid_Score:          -28.952204
##########                     Grid_vdw_energy:          -29.305592
##########                      Grid_es_energy:            0.353388
##########           Internal_energy_repulsive:           17.668451

@<TRIPOS>MOLECULE
ZINC000546115054
 55 56 1 0 0
SMALL
USER_CHARGES


@<TRIPOS>ATOM
      1 C1        -10.3643    0.0998   64.0878 C.3     1  ZINC000546115054   -0.1500
      2 C2         -9.7559   -0.7918   63.0034 C.3     1  ZINC000546115054    0.0600
      3 O3        -10.7162   -1.0031   61.9664 O.3     1  ZINC000546115054   -0.3700
      4 C4        -10.4386   -2.1346   61.1390 C.3     1  ZINC000546115054    0.0500
      5 H5        -10.3916   -3.0331   61.7544 H       1  ZINC000546115054    0.0700
      6 C6         -9.0985   -1.9315   60.4271 C.3     1  ZINC000546115054    0.0400
      7 O7         -8.8507   -3.0372   59.5565 O.3     1  ZINC000546115054   -0.3700
      8 C8         -9.8289   -3.2005   58.5276 C.3     1  ZINC000546115054    0.0600
      9 C9        -11.1983   -3.4545   59.1631 C.3     1  ZINC000546115054   -0.1600
     10 C10       -11.5469   -2.2881   60.0929 C.3     1  ZINC000546115054    0.1700
     11 H11       -11.6271   -1.3697   59.5113 H       1  ZINC000546115054    0.1000
     12 N12       -12.8224   -2.5582   60.7609 N.am    1  ZINC000546115054   -0.7300
     13 C13       -13.9832   -2.2820   60.1341 C.2     1  ZINC000546115054    0.7200
     14 O14       -13.9716   -1.8074   59.0148 O.2     1  ZINC000546115054   -0.5900
     15 N15       -15.1566   -2.5321   60.7481 N.am    1  ZINC000546115054   -0.7200
     16 C16       -16.4184   -2.2302   60.0674 C.3     1  ZINC000546115054    0.1600
     17 H17       -16.2575   -1.4342   59.3403 H       1  ZINC000546115054    0.1200
     18 C18       -16.9225   -3.4832   59.3485 C.3     1  ZINC000546115054   -0.1000
     19 C19       -16.1783   -3.6504   58.0489 C.ar    1  ZINC000546115054   -0.0800
     20 C20       -16.2859   -2.6884   57.0620 C.ar    1  ZINC000546115054   -0.1100
     21 C21       -15.6031   -2.8418   55.8700 C.ar    1  ZINC000546115054   -0.1200
     22 C22       -14.8126   -3.9570   55.6646 C.ar    1  ZINC000546115054   -0.1200
     23 C23       -14.7043   -4.9186   56.6517 C.ar    1  ZINC000546115054   -0.1200
     24 C24       -15.3835   -4.7631   57.8456 C.ar    1  ZINC000546115054   -0.1100
     25 C25       -17.4419   -1.7861   61.0803 C.2     1  ZINC000546115054    0.5000
     26 O26       -18.2591   -2.5763   61.5030 O.2     1  ZINC000546115054   -0.5200
     27 N27       -17.4491   -0.5109   61.5166 N.am    1  ZINC000546115054   -0.6200
     28 C28       -18.4430   -0.0797   62.5027 C.3     1  ZINC000546115054    0.0800
     29 C29       -16.4629    0.4438   61.0047 C.3     1  ZINC000546115054    0.0700
     30 H30        -9.6319    0.2609   64.8788 H       1  ZINC000546115054    0.0700
     31 H31       -10.6469    1.0586   63.6534 H       1  ZINC000546115054    0.0600
     32 H32       -11.2474   -0.3851   64.5036 H       1  ZINC000546115054    0.0600
     33 H33        -8.8727   -0.3069   62.5875 H       1  ZINC000546115054    0.0500
     34 H34        -9.4733   -1.7507   63.4378 H       1  ZINC000546115054    0.0500
     35 H35        -9.1321   -1.0108   59.8448 H       1  ZINC000546115054    0.0600
     36 H36        -8.3004   -1.8652   61.1667 H       1  ZINC000546115054    0.1000
     37 H37        -9.8721   -2.2962   57.9204 H       1  ZINC000546115054    0.0600
     38 H38        -9.5571   -4.0481   57.8987 H       1  ZINC000546115054    0.1000
     39 H39       -11.9534   -3.5353   58.3812 H       1  ZINC000546115054    0.0900
     40 H40       -11.1670   -4.3803   59.7377 H       1  ZINC000546115054    0.0800
     41 H41       -12.8316   -2.9357   61.6544 H       1  ZINC000546115054    0.3900
     42 H42       -15.1658   -2.9118   61.6405 H       1  ZINC000546115054    0.4000
     43 H43       -16.7536   -4.3563   59.9788 H       1  ZINC000546115054    0.0900
     44 H44       -17.9886   -3.3818   59.1462 H       1  ZINC000546115054    0.1100
     45 H45       -16.9035   -1.8171   57.2225 H       1  ZINC000546115054    0.1200
     46 H46       -15.6878   -2.0905   55.0986 H       1  ZINC000546115054    0.1200
     47 H47       -14.2798   -4.0771   54.7329 H       1  ZINC000546115054    0.1200
     48 H48       -14.0869   -5.7900   56.4912 H       1  ZINC000546115054    0.1200
     49 H49       -15.2989   -5.5145   58.6169 H       1  ZINC000546115054    0.1200
     50 H50       -18.0468   -0.2291   63.5071 H       1  ZINC000546115054    0.0600
     51 H51       -18.6676    0.9765   62.3541 H       1  ZINC000546115054    0.0700
     52 H52       -19.3539   -0.6657   62.3806 H       1  ZINC000546115054    0.0800
     53 H53       -16.8610    0.9371   60.1179 H       1  ZINC000546115054    0.0600
     54 H54       -16.2483    1.1899   61.7698 H       1  ZINC000546115054    0.0800
     55 H55       -15.5457   -0.0848   60.7455 H       1  ZINC000546115054    0.0700
@<TRIPOS>BOND
     1     1     2    1
     2     1    30    1
     3     1    31    1
     4     1    32    1
     5     2     3    1
     6     2    33    1
     7     2    34    1
     8     3     4    1
     9     4     5    1
    10     4    10    1
    11     4     6    1
    12     6     7    1
    13     6    35    1
    14     6    36    1
    15     7     8    1
    16     8     9    1
    17     8    37    1
    18     8    38    1
    19     9    10    1
    20     9    39    1
    21     9    40    1
    22    10    11    1
    23    10    12    1
    24    12    13   am
    25    12    41    1
    26    13    14    2
    27    13    15   am
    28    15    16    1
    29    15    42    1
    30    16    17    1
    31    16    18    1
    32    16    25    1
    33    18    19    1
    34    18    43    1
    35    18    44    1
    36    19    24   ar
    37    19    20   ar
    38    20    21   ar
    39    20    45    1
    40    21    22   ar
    41    21    46    1
    42    22    23   ar
    43    22    47    1
    44    23    24   ar
    45    23    48    1
    46    24    49    1
    47    25    26    2
    48    25    27   am
    49    27    28    1
    50    27    29    1
    51    28    50    1
    52    28    51    1
    53    28    52    1
    54    29    53    1
    55    29    54    1
    56    29    55    1
@<TRIPOS>SUBSTRUCTURE
     1 ZINC000546115054        1 TEMP              0 ****  ****    0 ROOT


##########                                Name:    ZINC000506156755
##########                DOCK_Rotatable_Bonds:                   7
##########                         Heavy_Atoms:                  30
##########                    Molecular_Weight:             400.434
##########                DOCK_Rotatable_Bonds:                   7
##########                       Formal_Charge:          -0.0200001
##########                     HBond_Acceptors:                   6
##########                        HBond_Donors:                   1
##########                         Heavy_Atoms:                  30
##########                          Grid_Score:          -28.948521
##########                     Grid_vdw_energy:          -27.233337
##########                      Grid_es_energy:           -1.715183
##########           Internal_energy_repulsive:           14.052827

@<TRIPOS>MOLECULE
ZINC000506156755
 50 53 1 0 0
SMALL
USER_CHARGES


@<TRIPOS>ATOM
      1 C1         -9.8074   -0.6889   63.0455 C.3     1  ZINC000506156755   -0.1600
      2 C2        -11.0485   -0.8695   62.1692 C.3     1  ZINC000506156755    0.1900
      3 H3        -11.6162   -1.7326   62.5168 H       1  ZINC000506156755    0.1000
      4 N4        -10.6380   -1.0826   60.7791 N.am    1  ZINC000506156755   -0.7200
      5 C5        -10.9185   -2.2489   60.1648 C.2     1  ZINC000506156755    0.5000
      6 O6        -11.5094   -3.1227   60.7633 O.2     1  ZINC000506156755   -0.5200
      7 C7        -10.4978   -2.4673   58.7343 C.3     1  ZINC000506156755    0.0900
      8 N8        -11.4951   -3.2967   58.0533 N.am    1  ZINC000506156755   -0.5600
      9 C9        -12.5240   -2.8133   57.3340 C.2     1  ZINC000506156755    0.5800
     10 O10       -12.7696   -1.6384   57.1492 O.2     1  ZINC000506156755   -0.4600
     11 C11       -13.3052   -3.9515   56.8056 C.ar    1  ZINC000506156755   -0.1400
     12 C12       -14.4406   -4.0639   56.0200 C.ar    1  ZINC000506156755   -0.0400
     13 C13       -14.9303   -5.3199   55.6956 C.ar    1  ZINC000506156755   -0.0900
     14 C14       -14.2937   -6.4589   56.1504 C.ar    1  ZINC000506156755   -0.0900
     15 C15       -13.1565   -6.3617   56.9376 C.ar    1  ZINC000506156755   -0.0400
     16 C16       -12.6558   -5.1136   57.2697 C.ar    1  ZINC000506156755   -0.1400
     17 C17       -11.4991   -4.6419   58.0602 C.2     1  ZINC000506156755    0.5800
     18 O18       -10.6891   -5.3503   58.6232 O.2     1  ZINC000506156755   -0.4600
     19 C19       -11.9084    0.3651   62.2555 C.ar    1  ZINC000506156755   -0.1200
     20 C20       -11.3781    1.6003   61.9382 C.ar    1  ZINC000506156755   -0.0800
     21 C21       -12.1667    2.7336   62.0167 C.ar    1  ZINC000506156755   -0.1400
     22 C22       -13.4875    2.6335   62.4128 C.ar    1  ZINC000506156755   -0.0800
     23 C23       -14.0229    1.4004   62.7313 C.ar    1  ZINC000506156755   -0.1900
     24 C24       -13.2353    0.2612   62.6483 C.ar    1  ZINC000506156755    0.1300
     25 O25       -13.7596   -0.9529   62.9606 O.3     1  ZINC000506156755   -0.2500
     26 C26       -14.5598   -1.5573   62.0436 C.ar    1  ZINC000506156755    0.0800
     27 C27       -15.2307   -2.7272   62.3699 C.ar    1  ZINC000506156755   -0.1400
     28 C28       -16.0434   -3.3395   61.4358 C.ar    1  ZINC000506156755   -0.1000
     29 C29       -16.1887   -2.7877   60.1764 C.ar    1  ZINC000506156755   -0.1200
     30 C30       -15.5212   -1.6220   59.8485 C.ar    1  ZINC000506156755   -0.1000
     31 C31       -14.7117   -1.0025   60.7808 C.ar    1  ZINC000506156755   -0.1200
     32 H32        -9.1855   -1.5819   62.9831 H       1  ZINC000506156755    0.0700
     33 H33        -9.2397    0.1742   62.6980 H       1  ZINC000506156755    0.0600
     34 H34       -10.1128   -0.5304   64.0798 H       1  ZINC000506156755    0.0700
     35 H35       -10.1644   -0.3841   60.3008 H       1  ZINC000506156755    0.4000
     36 H36       -10.4184   -1.5053   58.2280 H       1  ZINC000506156755    0.1300
     37 H37        -9.5310   -2.9702   58.7127 H       1  ZINC000506156755    0.1300
     38 H38       -14.9424   -3.1771   55.6620 H       1  ZINC000506156755    0.1400
     39 H39       -15.8156   -5.4085   55.0834 H       1  ZINC000506156755    0.1400
     40 H40       -14.6850   -7.4316   55.8913 H       1  ZINC000506156755    0.1400
     41 H41       -12.6628   -7.2553   57.2899 H       1  ZINC000506156755    0.1400
     42 H42       -10.3465    1.6813   61.6289 H       1  ZINC000506156755    0.1300
     43 H43       -11.7499    3.6985   61.7686 H       1  ZINC000506156755    0.1300
     44 H44       -14.1012    3.5201   62.4736 H       1  ZINC000506156755    0.1300
     45 H45       -15.0546    1.3228   63.0409 H       1  ZINC000506156755    0.1300
     46 H46       -15.1173   -3.1587   63.3534 H       1  ZINC000506156755    0.1300
     47 H47       -16.5656   -4.2503   61.6893 H       1  ZINC000506156755    0.1300
     48 H48       -16.8243   -3.2682   59.4473 H       1  ZINC000506156755    0.1300
     49 H49       -15.6363   -1.1930   58.8640 H       1  ZINC000506156755    0.1300
     50 H50       -14.1909   -0.0919   60.5243 H       1  ZINC000506156755    0.1300
@<TRIPOS>BOND
     1     1     2    1
     2     1    32    1
     3     1    33    1
     4     1    34    1
     5     2     3    1
     6     2     4    1
     7     2    19    1
     8     4     5   am
     9     4    35    1
    10     5     6    2
    11     5     7    1
    12     7     8    1
    13     7    36    1
    14     7    37    1
    15     8    17   am
    16     8     9   am
    17     9    10    2
    18     9    11    1
    19    11    16   ar
    20    11    12   ar
    21    12    13   ar
    22    12    38    1
    23    13    14   ar
    24    13    39    1
    25    14    15   ar
    26    14    40    1
    27    15    16   ar
    28    15    41    1
    29    16    17    1
    30    17    18    2
    31    19    24   ar
    32    19    20   ar
    33    20    21   ar
    34    20    42    1
    35    21    22   ar
    36    21    43    1
    37    22    23   ar
    38    22    44    1
    39    23    24   ar
    40    23    45    1
    41    24    25    1
    42    25    26    1
    43    26    31   ar
    44    26    27   ar
    45    27    28   ar
    46    27    46    1
    47    28    29   ar
    48    28    47    1
    49    29    30   ar
    50    29    48    1
    51    30    31   ar
    52    30    49    1
    53    31    50    1
@<TRIPOS>SUBSTRUCTURE
     1 ZINC000506156755        1 TEMP              0 ****  ****    0 ROOT


##########                                Name:    ZINC001300804061
##########                DOCK_Rotatable_Bonds:                   5
##########                         Heavy_Atoms:                  27
##########                    Molecular_Weight:              390.55
##########                DOCK_Rotatable_Bonds:                   5
##########                       Formal_Charge:                0.01
##########                     HBond_Acceptors:                   7
##########                        HBond_Donors:                   0
##########                         Heavy_Atoms:                  27
##########                          Grid_Score:          -28.937197
##########                     Grid_vdw_energy:          -27.371719
##########                      Grid_es_energy:           -1.565478
##########           Internal_energy_repulsive:           10.290071

@<TRIPOS>MOLECULE
ZINC001300804061
 57 60 1 0 0
SMALL
USER_CHARGES


@<TRIPOS>ATOM
      1 C1         -0.9437   -1.6562   46.6562 C.3     1  ZINC001300804061    0.0300
      2 O2         -1.1377   -0.4611   45.8973 O.3     1  ZINC001300804061   -0.3800
      3 C3         -0.3483    0.6441   46.3415 C.3     1  ZINC001300804061    0.1000
      4 H4          0.6071    0.2803   46.7195 H       1  ZINC001300804061    0.0700
      5 C5         -1.0895    1.3861   47.4559 C.3     1  ZINC001300804061    0.0500
      6 N6         -0.2882    2.5344   47.8983 N.3     1  ZINC001300804061   -0.4600
      7 C7         -0.8680    3.1516   48.9937 C.2     1  ZINC001300804061    0.3600
      8 N8         -1.8914    3.9743   48.9724 N.2     1  ZINC001300804061   -0.3000
      9 N9         -2.1721    4.3628   50.1648 N.2     1  ZINC001300804061   -0.2500
     10 C10        -1.3428    3.8102   51.0229 C.2     1  ZINC001300804061    0.2600
     11 C11        -1.3360    4.0028   52.4816 C.2     1  ZINC001300804061    0.0400
     12 C12        -2.3696    4.4796   53.2305 C.2     1  ZINC001300804061   -0.1300
     13 C13        -1.9270    4.4971   54.5674 C.2     1  ZINC001300804061   -0.2100
     14 C14        -0.6605    4.0359   54.5710 C.2     1  ZINC001300804061    0.0100
     15 C15         0.2137    3.8801   55.7886 C.3     1  ZINC001300804061   -0.0800
     16 O16        -0.3084    3.7328   53.3107 O.3     1  ZINC001300804061   -0.1700
     17 N17        -0.4854    3.0128   50.2976 N.pl3   1  ZINC001300804061   -0.4600
     18 C18         0.6130    2.1935   50.8156 C.3     1  ZINC001300804061    0.1200
     19 C19         1.9496    2.8409   50.4478 C.3     1  ZINC001300804061   -0.1000
     20 H20         1.9429    3.1096   49.3914 H       1  ZINC001300804061    0.0900
     21 C21         3.0812    1.8518   50.7117 C.3     1  ZINC001300804061   -0.1200
     22 C22         4.3904    2.3568   50.1124 C.3     1  ZINC001300804061   -0.1200
     23 C23         4.9022    3.5577   50.9122 C.3     1  ZINC001300804061   -0.0800
     24 S24         3.6966    4.9108   50.7755 S.3     1  ZINC001300804061   -0.2600
     25 C25         2.1530    4.1018   51.2918 C.3     1  ZINC001300804061   -0.0700
     26 C26        -0.0817    3.4910   46.8036 C.3     1  ZINC001300804061    0.0600
     27 C27         0.6897    2.8119   45.6696 C.3     1  ZINC001300804061   -0.1100
     28 C28        -0.1043    1.6011   45.1714 C.3     1  ZINC001300804061   -0.0900
     29 H29        -1.0609    1.9336   44.7682 H       1  ZINC001300804061    0.0800
     30 C30         0.6898    0.8838   44.0779 C.3     1  ZINC001300804061   -0.1400
     31 H31         0.1009   -1.9611   46.5932 H       1  ZINC001300804061    0.0400
     32 H32        -1.2061   -1.4717   47.6979 H       1  ZINC001300804061    0.0400
     33 H33        -1.5779   -2.4475   46.2564 H       1  ZINC001300804061    0.0900
     34 H34        -2.0512    1.7371   47.0815 H       1  ZINC001300804061    0.0700
     35 H35        -1.2517    0.7112   48.2963 H       1  ZINC001300804061    0.0800
     36 H36        -3.3402    4.7854   52.8689 H       1  ZINC001300804061    0.1600
     37 H37        -2.4954    4.8192   55.4274 H       1  ZINC001300804061    0.1600
     38 H38         0.0753    2.8845   56.2103 H       1  ZINC001300804061    0.0900
     39 H39         1.2579    4.0129   55.5056 H       1  ZINC001300804061    0.0800
     40 H40        -0.0598    4.6302   56.5307 H       1  ZINC001300804061    0.0900
     41 H41         0.5313    2.1199   51.9001 H       1  ZINC001300804061    0.1100
     42 H42         0.5598    1.1963   50.3787 H       1  ZINC001300804061    0.1000
     43 H43         3.2038    1.7256   51.7873 H       1  ZINC001300804061    0.0700
     44 H44         2.8290    0.8903   50.2645 H       1  ZINC001300804061    0.0800
     45 H45         5.1330    1.5595   50.1416 H       1  ZINC001300804061    0.0800
     46 H46         4.2232    2.6558   49.0777 H       1  ZINC001300804061    0.0800
     47 H47         5.0187    3.2766   51.9589 H       1  ZINC001300804061    0.0800
     48 H48         5.8622    3.8819   50.5102 H       1  ZINC001300804061    0.1100
     49 H49         1.3151    4.7816   51.1372 H       1  ZINC001300804061    0.1000
     50 H50         2.2170    3.8318   52.3459 H       1  ZINC001300804061    0.0900
     51 H51        -1.0480    3.8322   46.4321 H       1  ZINC001300804061    0.0600
     52 H52         0.4884    4.3449   47.1701 H       1  ZINC001300804061    0.0800
     53 H53         0.8292    3.5176   44.8507 H       1  ZINC001300804061    0.0800
     54 H54         1.6618    2.4828   46.0368 H       1  ZINC001300804061    0.0800
     55 H55         1.6452    0.5497   44.4825 H       1  ZINC001300804061    0.0500
     56 H56         0.1239    0.0221   43.7238 H       1  ZINC001300804061    0.0600
     57 H57         0.8660    1.5684   43.2483 H       1  ZINC001300804061    0.0600
@<TRIPOS>BOND
     1     1     2    1
     2     1    31    1
     3     1    32    1
     4     1    33    1
     5     2     3    1
     6     3     4    1
     7     3    28    1
     8     3     5    1
     9     5     6    1
    10     5    34    1
    11     5    35    1
    12     6     7    1
    13     6    26    1
    14     7    17    1
    15     7     8    2
    16     8     9    1
    17     9    10    2
    18    10    11    1
    19    10    17    1
    20    11    16    1
    21    11    12    2
    22    12    13    1
    23    12    36    1
    24    13    14    2
    25    13    37    1
    26    14    15    1
    27    14    16    1
    28    15    38    1
    29    15    39    1
    30    15    40    1
    31    17    18    1
    32    18    19    1
    33    18    41    1
    34    18    42    1
    35    19    20    1
    36    19    25    1
    37    19    21    1
    38    21    22    1
    39    21    43    1
    40    21    44    1
    41    22    23    1
    42    22    45    1
    43    22    46    1
    44    23    24    1
    45    23    47    1
    46    23    48    1
    47    24    25    1
    48    25    49    1
    49    25    50    1
    50    26    27    1
    51    26    51    1
    52    26    52    1
    53    27    28    1
    54    27    53    1
    55    27    54    1
    56    28    29    1
    57    28    30    1
    58    30    55    1
    59    30    56    1
    60    30    57    1
@<TRIPOS>SUBSTRUCTURE
     1 ZINC001300804061        1 TEMP              0 ****  ****    0 ROOT


##########                                Name:    ZINC000938043669
##########                DOCK_Rotatable_Bonds:                   7
##########                         Heavy_Atoms:                  27
##########                    Molecular_Weight:             372.439
##########                DOCK_Rotatable_Bonds:                   7
##########                       Formal_Charge:           0.0499999
##########                     HBond_Acceptors:                   6
##########                        HBond_Donors:                   1
##########                         Heavy_Atoms:                  27
##########                          Grid_Score:          -28.936718
##########                     Grid_vdw_energy:          -28.934782
##########                      Grid_es_energy:           -0.001935
##########           Internal_energy_repulsive:           41.141602

@<TRIPOS>MOLECULE
ZINC000938043669
 52 55 1 0 0
SMALL
USER_CHARGES


@<TRIPOS>ATOM
      1 O1        -16.1195   -7.7313   54.0474 O.2     1  ZINC000938043669   -0.5000
      2 C2        -15.8697   -6.5449   54.0155 C.2     1  ZINC000938043669    0.5300
      3 C3        -16.3059   -5.7145   52.8360 C.3     1  ZINC000938043669    0.0500
      4 O4        -16.4107   -6.5475   51.6796 O.3     1  ZINC000938043669   -0.2800
      5 C5        -16.7853   -5.9475   50.5186 C.ar    1  ZINC000938043669    0.0900
      6 C6        -16.8939   -6.6932   49.3551 C.ar    1  ZINC000938043669   -0.1800
      7 C7        -17.2755   -6.0814   48.1759 C.ar    1  ZINC000938043669   -0.0900
      8 C8        -17.5489   -4.7266   48.1549 C.ar    1  ZINC000938043669   -0.1300
      9 C9        -17.4413   -3.9787   49.3132 C.ar    1  ZINC000938043669   -0.1100
     10 C10       -17.0655   -4.5867   50.4972 C.ar    1  ZINC000938043669    0.0800
     11 F11       -16.9604   -3.8565   51.6289 F       1  ZINC000938043669   -0.1300
     12 N12       -15.2069   -5.9680   55.0374 N.am    1  ZINC000938043669   -0.6200
     13 C13       -14.7262   -6.6562   56.2443 C.3     1  ZINC000938043669    0.1000
     14 C14       -14.0058   -5.6053   57.1149 C.3     1  ZINC000938043669   -0.1400
     15 C15       -13.6273   -4.5045   56.0890 C.3     1  ZINC000938043669    0.1300
     16 H16       -12.7071   -4.7599   55.5636 H       1  ZINC000938043669    0.1100
     17 N17       -13.5114   -3.1973   56.7401 N.am    1  ZINC000938043669   -0.7200
     18 C18       -12.3476   -2.8301   57.3119 C.2     1  ZINC000938043669    0.5200
     19 O19       -11.3957   -3.5812   57.2861 O.2     1  ZINC000938043669   -0.5200
     20 C20       -12.2288   -1.4862   57.9832 C.3     1  ZINC000938043669   -0.1000
     21 H21       -12.9415   -0.7929   57.5365 H       1  ZINC000938043669    0.1000
     22 C22       -10.8086   -0.9472   57.7975 C.3     1  ZINC000938043669   -0.1100
     23 C23       -10.1570   -0.7339   59.1698 C.3     1  ZINC000938043669   -0.0600
     24 H24        -9.1256   -0.3987   59.0599 H       1  ZINC000938043669    0.0800
     25 C25       -10.2182   -2.0531   59.9252 C.2     1  ZINC000938043669   -0.1800
     26 C26       -11.4533   -2.5218   60.0868 C.2     1  ZINC000938043669   -0.1300
     27 C27       -12.5295   -1.6342   59.4802 C.3     1  ZINC000938043669   -0.0400
     28 H28       -13.5196   -2.0596   59.6451 H       1  ZINC000938043669    0.0900
     29 C29       -12.4159   -0.2504   60.1342 C.3     1  ZINC000938043669   -0.1200
     30 C30       -10.9864    0.3017   59.9417 C.3     1  ZINC000938043669   -0.1100
     31 C31       -14.8383   -4.5433   55.1272 C.3     1  ZINC000938043669    0.1000
     32 H32       -17.2754   -5.2634   53.0478 H       1  ZINC000938043669    0.1000
     33 H33       -15.5722   -4.9295   52.6529 H       1  ZINC000938043669    0.1000
     34 H34       -16.6803   -7.7518   49.3701 H       1  ZINC000938043669    0.1400
     35 H35       -17.3598   -6.6626   47.2695 H       1  ZINC000938043669    0.1300
     36 H36       -17.8468   -4.2512   47.2320 H       1  ZINC000938043669    0.1400
     37 H37       -17.6551   -2.9203   49.2940 H       1  ZINC000938043669    0.1500
     38 H38       -15.5697   -7.0763   56.7923 H       1  ZINC000938043669    0.0800
     39 H39       -14.0303   -7.4480   55.9672 H       1  ZINC000938043669    0.0800
     40 H40       -14.6779   -5.2085   57.8758 H       1  ZINC000938043669    0.0900
     41 H41       -13.1121   -6.0302   57.5720 H       1  ZINC000938043669    0.1000
     42 H42       -14.2723   -2.5960   56.7595 H       1  ZINC000938043669    0.4000
     43 H43       -10.2205   -1.6636   57.2238 H       1  ZINC000938043669    0.0700
     44 H44       -10.8473    0.0016   57.2624 H       1  ZINC000938043669    0.0800
     45 H45        -9.3407   -2.5622   60.2960 H       1  ZINC000938043669    0.1200
     46 H46       -11.6712   -3.4467   60.6002 H       1  ZINC000938043669    0.1200
     47 H47       -13.1267    0.4314   59.6674 H       1  ZINC000938043669    0.0700
     48 H48       -12.6369   -0.3324   61.1985 H       1  ZINC000938043669    0.0700
     49 H49       -10.5303    0.4765   60.9162 H       1  ZINC000938043669    0.0700
     50 H50       -11.0308    1.2397   59.3884 H       1  ZINC000938043669    0.0700
     51 H51       -14.5567   -4.1583   54.1471 H       1  ZINC000938043669    0.0900
     52 H52       -15.6676   -3.9675   55.5380 H       1  ZINC000938043669    0.0700
@<TRIPOS>BOND
     1     1     2    2
     2     2     3    1
     3     2    12   am
     4     3     4    1
     5     3    32    1
     6     3    33    1
     7     4     5    1
     8     5    10   ar
     9     5     6   ar
    10     6     7   ar
    11     6    34    1
    12     7     8   ar
    13     7    35    1
    14     8     9   ar
    15     8    36    1
    16     9    10   ar
    17     9    37    1
    18    10    11    1
    19    12    31    1
    20    12    13    1
    21    13    14    1
    22    13    38    1
    23    13    39    1
    24    14    15    1
    25    14    40    1
    26    14    41    1
    27    15    16    1
    28    15    17    1
    29    15    31    1
    30    17    18   am
    31    17    42    1
    32    18    19    2
    33    18    20    1
    34    20    21    1
    35    20    27    1
    36    20    22    1
    37    22    23    1
    38    22    43    1
    39    22    44    1
    40    23    24    1
    41    23    30    1
    42    23    25    1
    43    25    26    2
    44    25    45    1
    45    26    27    1
    46    26    46    1
    47    27    28    1
    48    27    29    1
    49    29    30    1
    50    29    47    1
    51    29    48    1
    52    30    49    1
    53    30    50    1
    54    31    51    1
    55    31    52    1
@<TRIPOS>SUBSTRUCTURE
     1 ZINC000938043669        1 TEMP              0 ****  ****    0 ROOT


##########                                Name:    ZINC000011972961
##########                DOCK_Rotatable_Bonds:                   6
##########                         Heavy_Atoms:                  28
##########                    Molecular_Weight:             397.501
##########                DOCK_Rotatable_Bonds:                   6
##########                       Formal_Charge:                   0
##########                     HBond_Acceptors:                   8
##########                        HBond_Donors:                   1
##########                         Heavy_Atoms:                  28
##########                          Grid_Score:          -28.934975
##########                     Grid_vdw_energy:          -28.934975
##########                      Grid_es_energy:            0.000000
##########           Internal_energy_repulsive:           22.302544

@<TRIPOS>MOLECULE
ZINC000011972961
 51 54 1 0 0
SMALL
USER_CHARGES


@<TRIPOS>ATOM
      1 C1        -12.2442   -3.4128   58.8005 C.3        p"yu      0.0000
      2 C2        -11.5452   -2.2479   58.1483 C.2        p"yu      0.0000
      3 C3        -10.4958   -1.6373   58.7130 C.2        p"yu      0.0000
      4 C4         -9.9067   -2.0125   60.0041 C.2        p"yu      0.0000
      5 O5         -9.1645   -2.9740   60.0778 O.2        p"yu      0.0000
      6 N6        -10.1877   -1.2921   61.1079 N.am       p"yu      0.0000
      7 C7         -9.5997   -1.6666   62.3965 C.3        p"yu      0.0000
      8 C8        -11.0811   -0.1344   61.0193 C.3        p"yu      0.0000
      9 H9        -11.1987    0.1770   59.9814 H          p"yu      0.0000
     10 C10       -12.4581   -0.4634   61.6457 C.3        p"yu      0.0000
     11 C11       -12.3205    0.1391   63.0671 C.3        p"yu      0.0000
     12 O12       -11.5542    1.3433   62.8497 O.3        p"yu      0.0000
     13 C13       -10.5424    1.0293   61.8738 C.3        p"yu      0.0000
     14 S14        -9.9214   -0.3267   57.6963 S.3        p"yu      0.0000
     15 C15       -11.1607   -0.6519   56.4919 C.ar       p"yu      0.0000
     16 N16       -11.4341   -0.0597   55.3238 N.ar       p"yu      0.0000
     17 C17       -12.4258   -0.4746   54.5691 C.ar       p"yu      0.0000
     18 N18       -13.1990   -1.4870   54.9169 N.ar       p"yu      0.0000
     19 C19       -13.0094   -2.1385   56.0542 C.ar       p"yu      0.0000
     20 N20       -13.8271   -3.1945   56.4019 N.pl3      p"yu      0.0000
     21 C21       -13.7431   -4.4590   55.6669 C.3        p"yu      0.0000
     22 C22       -14.9872   -4.6408   54.8362 C.ar       p"yu      0.0000
     23 N23       -14.9227   -5.3154   53.7051 N.ar       p"yu      0.0000
     24 C24       -15.9854   -5.5000   52.9461 C.ar       p"yu      0.0000
     25 C25       -15.8575   -6.2789   51.6624 C.3        p"yu      0.0000
     26 C26       -17.2147   -4.9877   53.3146 C.ar       p"yu      0.0000
     27 C27       -17.3216   -4.2725   54.4977 C.ar       p"yu      0.0000
     28 C28       -16.1839   -4.1032   55.2715 C.ar       p"yu      0.0000
     29 C29       -11.9453   -1.7358   56.9097 C.ar       p"yu      0.0000
     30 H30       -12.0563   -4.3186   58.2238 H          p"yu      0.0000
     31 H31       -11.8656   -3.5426   59.8144 H          p"yu      0.0000
     32 H32       -13.3166   -3.2202   58.8350 H          p"yu      0.0000
     33 H33        -8.5189   -1.5313   62.3557 H          p"yu      0.0000
     34 H34       -10.0155   -1.0362   63.1825 H          p"yu      0.0000
     35 H35        -9.8273   -2.7110   62.6099 H          p"yu      0.0000
     36 H36       -13.2626    0.0223   61.0935 H          p"yu      0.0000
     37 H37       -12.6162   -1.5409   61.6935 H          p"yu      0.0000
     38 H38       -13.3009    0.3773   63.4795 H          p"yu      0.0000
     39 H39       -11.7826   -0.5449   63.7235 H          p"yu      0.0000
     40 H40        -9.6242    0.7256   62.3764 H          p"yu      0.0000
     41 H41       -10.3524    1.8985   61.2440 H          p"yu      0.0000
     42 H42       -12.6154    0.0294   53.6331 H          p"yu      0.0000
     43 H43       -14.4576   -3.0994   57.1330 H          p"yu      0.0000
     44 H44       -12.8698   -4.4429   55.0148 H          p"yu      0.0000
     45 H45       -13.6540   -5.2845   56.3732 H          p"yu      0.0000
     46 H46       -16.0374   -7.3358   51.8592 H          p"yu      0.0000
     47 H47       -16.5891   -5.9140   50.9416 H          p"yu      0.0000
     48 H48       -14.8535   -6.1505   51.2579 H          p"yu      0.0000
     49 H49       -18.0813   -5.1423   52.6888 H          p"yu      0.0000
     50 H50       -18.2696   -3.8605   54.8110 H          p"yu      0.0000
     51 H51       -16.2305   -3.5521   56.1991 H          p"yu      0.0000
@<TRIPOS>BOND
     1     1     2    1
     2     1    30    1
     3     1    31    1
     4     1    32    1
     5     2    29    1
     6     2     3    2
     7     3     4    1
     8     3    14    1
     9     4     5    2
    10     4     6   am
    11     6     7    1
    12     6     8    1
    13     7    33    1
    14     7    34    1
    15     7    35    1
    16     8     9    1
    17     8    13    1
    18     8    10    1
    19    10    11    1
    20    10    36    1
    21    10    37    1
    22    11    12    1
    23    11    38    1
    24    11    39    1
    25    12    13    1
    26    13    40    1
    27    13    41    1
    28    14    15    1
    29    15    29   ar
    30    15    16   ar
    31    16    17   ar
    32    17    18   ar
    33    17    42    1
    34    18    19   ar
    35    19    20    1
    36    19    29   ar
    37    20    21    1
    38    20    43    1
    39    21    22    1
    40    21    44    1
    41    21    45    1
    42    22    28   ar
    43    22    23   ar
    44    23    24   ar
    45    24    25    1
    46    24    26   ar
    47    25    46    1
    48    25    47    1
    49    25    48    1
    50    26    27   ar
    51    26    49    1
    52    27    28   ar
    53    27    50    1
    54    28    51    1
@<TRIPOS>SUBSTRUCTURE
     1 p"yu        1 TEMP              0 ****  ****    0 ROOT


##########                                Name:    ZINC000573650873
##########                DOCK_Rotatable_Bonds:                  10
##########                         Heavy_Atoms:                  28
##########                    Molecular_Weight:             418.843
##########                DOCK_Rotatable_Bonds:                  10
##########                       Formal_Charge:          -0.0500001
##########                     HBond_Acceptors:                   9
##########                        HBond_Donors:                   1
##########                         Heavy_Atoms:                  28
##########                          Grid_Score:          -28.910519
##########                     Grid_vdw_energy:          -28.148226
##########                      Grid_es_energy:           -0.762294
##########           Internal_energy_repulsive:           15.608431

@<TRIPOS>MOLECULE
ZINC000573650873
 50 51 1 0 0
SMALL
USER_CHARGES


@<TRIPOS>ATOM
      1 C1        -18.3030   -3.2612   59.9422 C.3     1  ZINC000573650873   -0.1400
      2 C2        -17.9615   -1.7800   60.1160 C.3     1  ZINC000573650873    0.0100
      3 C3        -17.8298   -1.1221   58.7409 C.3     1  ZINC000573650873   -0.1400
      4 C4        -19.0743   -1.0895   60.9072 C.3     1  ZINC000573650873   -0.1500
      5 C5        -16.6589   -1.6489   60.8624 C.2     1  ZINC000573650873   -0.0100
      6 C6        -15.6275   -0.8305   60.5501 C.2     1  ZINC000573650873   -0.1800
      7 C7        -14.6620   -1.0955   61.5609 C.2     1  ZINC000573650873   -0.0300
      8 C8        -13.3259   -0.4676   61.7040 C.2     1  ZINC000573650873    0.6000
      9 O9        -13.2136    0.5975   62.2776 O.2     1  ZINC000573650873   -0.5100
     10 N10       -12.2364   -1.0785   61.1977 N.am    1  ZINC000573650873   -0.5900
     11 C11       -12.3719   -2.3629   60.5060 C.3     1  ZINC000573650873    0.1200
     12 C12       -12.3124   -2.1366   58.9940 C.3     1  ZINC000573650873   -0.1000
     13 C13       -12.8817   -3.3374   58.2836 C.ar    1  ZINC000573650873   -0.0800
     14 C14       -14.1535   -3.2825   57.7444 C.ar    1  ZINC000573650873   -0.1000
     15 C15       -14.6763   -4.3836   57.0926 C.ar    1  ZINC000573650873   -0.1100
     16 C16       -13.9265   -5.5407   56.9799 C.ar    1  ZINC000573650873   -0.0400
     17 Cl17      -14.5822   -6.9239   56.1609 Cl      1  ZINC000573650873   -0.0700
     18 C18       -12.6538   -5.5952   57.5196 C.ar    1  ZINC000573650873   -0.1100
     19 C19       -12.1300   -4.4915   58.1662 C.ar    1  ZINC000573650873   -0.1000
     20 C20       -10.9168   -0.4584   61.3391 C.3     1  ZINC000573650873    0.0700
     21 C21       -10.0754   -1.2692   62.3270 C.3     1  ZINC000573650873    0.0600
     22 H22       -10.4844   -2.2759   62.4117 H       1  ZINC000573650873    0.1400
     23 O23        -8.7274   -1.3405   61.8580 O.3     1  ZINC000573650873   -0.5200
     24 C24       -10.1033   -0.5903   63.6978 C.3     1  ZINC000573650873    0.4300
     25 F25        -9.2683   -1.2850   64.5794 F       1  ZINC000573650873   -0.1700
     26 F26        -9.6556    0.7293   63.5738 F       1  ZINC000573650873   -0.1700
     27 F27       -11.4115   -0.5942   64.1936 F       1  ZINC000573650873   -0.1800
     28 N28       -15.1915   -2.0056   62.3401 N.2     1  ZINC000573650873   -0.3400
     29 O29       -16.2991   -2.3162   61.9676 O.3     1  ZINC000573650873    0.1300
     30 H30       -17.5103   -3.7531   59.3786 H       1  ZINC000573650873    0.0600
     31 H31       -18.3969   -3.7298   60.9219 H       1  ZINC000573650873    0.0600
     32 H32       -19.2452   -3.3559   59.4025 H       1  ZINC000573650873    0.0700
     33 H33       -18.7719   -1.2170   58.2012 H       1  ZINC000573650873    0.0700
     34 H34       -17.5866   -0.0669   58.8648 H       1  ZINC000573650873    0.0600
     35 H35       -17.0371   -1.6141   58.1773 H       1  ZINC000573650873    0.0600
     36 H36       -19.1682   -1.5581   61.8869 H       1  ZINC000573650873    0.0600
     37 H37       -18.8311   -0.0343   61.0311 H       1  ZINC000573650873    0.0600
     38 H38       -20.0164   -1.1843   60.3674 H       1  ZINC000573650873    0.0700
     39 H39       -15.5542   -0.1374   59.7251 H       1  ZINC000573650873    0.1800
     40 H40       -11.5597   -3.0248   60.8065 H       1  ZINC000573650873    0.0900
     41 H41       -13.3272   -2.8177   60.7681 H       1  ZINC000573650873    0.1000
     42 H42       -12.8946   -1.2519   58.7359 H       1  ZINC000573650873    0.0800
     43 H43       -11.2761   -1.9913   58.6888 H       1  ZINC000573650873    0.0800
     44 H44       -14.7389   -2.3792   57.8328 H       1  ZINC000573650873    0.1300
     45 H45       -15.6700   -4.3407   56.6719 H       1  ZINC000573650873    0.1300
     46 H46       -12.0681   -6.4983   57.4322 H       1  ZINC000573650873    0.1300
     47 H47       -11.1363   -4.5338   58.5874 H       1  ZINC000573650873    0.1300
     48 H48       -10.4192   -0.4376   60.3696 H       1  ZINC000573650873    0.1000
     49 H49       -11.0318    0.5601   61.7103 H       1  ZINC000573650873    0.1200
     50 H50        -8.1390   -1.8536   62.4286 H       1  ZINC000573650873    0.3900
@<TRIPOS>BOND
     1     1     2    1
     2     1    30    1
     3     1    31    1
     4     1    32    1
     5     2     3    1
     6     2     4    1
     7     2     5    1
     8     3    33    1
     9     3    34    1
    10     3    35    1
    11     4    36    1
    12     4    37    1
    13     4    38    1
    14     5    29    1
    15     5     6    2
    16     6     7    1
    17     6    39    1
    18     7     8    1
    19     7    28    2
    20     8     9    2
    21     8    10   am
    22    10    11    1
    23    10    20    1
    24    11    12    1
    25    11    40    1
    26    11    41    1
    27    12    13    1
    28    12    42    1
    29    12    43    1
    30    13    19   ar
    31    13    14   ar
    32    14    15   ar
    33    14    44    1
    34    15    16   ar
    35    15    45    1
    36    16    17    1
    37    16    18   ar
    38    18    19   ar
    39    18    46    1
    40    19    47    1
    41    20    21    1
    42    20    48    1
    43    20    49    1
    44    21    22    1
    45    21    23    1
    46    21    24    1
    47    23    50    1
    48    24    25    1
    49    24    26    1
    50    24    27    1
    51    28    29    1
@<TRIPOS>SUBSTRUCTURE
     1 ZINC000573650873        1 TEMP              0 ****  ****    0 ROOT


##########                                Name:    ZINC000537799672
##########                DOCK_Rotatable_Bonds:                   9
##########                         Heavy_Atoms:                  29
##########                    Molecular_Weight:             401.478
##########                DOCK_Rotatable_Bonds:                   9
##########                       Formal_Charge:        -4.47035e-07
##########                     HBond_Acceptors:                   6
##########                        HBond_Donors:                   1
##########                         Heavy_Atoms:                  29
##########                          Grid_Score:          -28.868370
##########                     Grid_vdw_energy:          -28.140568
##########                      Grid_es_energy:           -0.727803
##########           Internal_energy_repulsive:           18.054811

@<TRIPOS>MOLECULE
ZINC000537799672
 57 59 1 0 0
SMALL
USER_CHARGES


@<TRIPOS>ATOM
      1 C1        -10.9873    3.5626   54.2566 C.3     1  ZINC000537799672    0.0300
      2 O2        -10.5341    2.7981   55.3756 O.3     1  ZINC000537799672   -0.3800
      3 C3        -10.8035    1.3987   55.2710 C.3     1  ZINC000537799672    0.1200
      4 H4        -11.8525    1.2486   55.0157 H       1  ZINC000537799672    0.0900
      5 C5         -9.9341    0.7987   54.1962 C.ar    1  ZINC000537799672   -0.1300
      6 C6         -8.7173    1.3783   53.8885 C.ar    1  ZINC000537799672   -0.0600
      7 C7         -7.9192    0.8290   52.9030 C.ar    1  ZINC000537799672   -0.1500
      8 C8         -8.3386   -0.3024   52.2239 C.ar    1  ZINC000537799672    0.1000
      9 F9         -7.5590   -0.8405   51.2606 F       1  ZINC000537799672   -0.1400
     10 C10        -9.5573   -0.8822   52.5332 C.ar    1  ZINC000537799672   -0.1500
     11 C11       -10.3515   -0.3340   53.5224 C.ar    1  ZINC000537799672   -0.0800
     12 C12       -10.5021    0.7198   56.6086 C.3     1  ZINC000537799672    0.1600
     13 H13       -11.0669    1.2110   57.4009 H       1  ZINC000537799672    0.1000
     14 C14        -9.0055    0.8255   56.9083 C.3     1  ZINC000537799672   -0.1600
     15 N15       -10.8872   -0.6920   56.5374 N.am    1  ZINC000537799672   -0.7100
     16 C16       -12.1249   -1.0724   56.9113 C.2     1  ZINC000537799672    0.5600
     17 O17       -12.9220   -0.2442   57.3063 O.2     1  ZINC000537799672   -0.5400
     18 C18       -12.5130   -2.4974   56.8411 C.ar    1  ZINC000537799672   -0.1400
     19 C19       -13.4317   -2.9270   55.8825 C.ar    1  ZINC000537799672   -0.0800
     20 C20       -13.7893   -4.2583   55.8220 C.ar    1  ZINC000537799672   -0.1300
     21 C21       -13.2396   -5.1663   56.7091 C.ar    1  ZINC000537799672   -0.0900
     22 C22       -12.3284   -4.7468   57.6623 C.ar    1  ZINC000537799672   -0.1100
     23 C23       -11.9577   -3.4198   57.7296 C.ar    1  ZINC000537799672   -0.0300
     24 C24       -10.9648   -2.9648   58.7680 C.3     1  ZINC000537799672    0.1100
     25 O25       -11.6551   -2.2991   59.8275 O.3     1  ZINC000537799672   -0.3800
     26 C26       -10.8423   -1.3852   60.5667 C.3     1  ZINC000537799672    0.0900
     27 C27       -11.7368   -0.4644   61.4024 C.3     1  ZINC000537799672   -0.1800
     28 C28       -10.8564    0.4577   62.2498 C.3     1  ZINC000537799672    0.0600
     29 O29        -9.9974   -0.3319   63.0749 O.3     1  ZINC000537799672   -0.3800
     30 C30        -9.1052   -1.1780   62.3468 C.3     1  ZINC000537799672    0.0600
     31 C31        -9.9153   -2.1659   61.5033 C.3     1  ZINC000537799672   -0.1500
     32 H32       -12.0528    3.3893   54.1058 H       1  ZINC000537799672    0.0500
     33 H33       -10.8146    4.6219   54.4463 H       1  ZINC000537799672    0.0900
     34 H34       -10.4400    3.2594   53.3640 H       1  ZINC000537799672    0.0400
     35 H35        -8.3904    2.2608   54.4183 H       1  ZINC000537799672    0.1300
     36 H36        -6.9690    1.2823   52.6624 H       1  ZINC000537799672    0.1400
     37 H37        -9.8855   -1.7646   52.0039 H       1  ZINC000537799672    0.1400
     38 H38       -11.3020   -0.7863   53.7640 H       1  ZINC000537799672    0.1300
     39 H39        -8.6999    1.8710   56.8682 H       1  ZINC000537799672    0.0700
     40 H40        -8.8049    0.4263   57.9026 H       1  ZINC000537799672    0.0600
     41 H41        -8.4454    0.2546   56.1678 H       1  ZINC000537799672    0.0700
     42 H42       -10.2515   -1.3528   56.2211 H       1  ZINC000537799672    0.4000
     43 H43       -13.8622   -2.2190   55.1898 H       1  ZINC000537799672    0.1300
     44 H44       -14.5002   -4.5921   55.0805 H       1  ZINC000537799672    0.1300
     45 H45       -13.5232   -6.2072   56.6577 H       1  ZINC000537799672    0.1300
     46 H46       -11.9032   -5.4606   58.3523 H       1  ZINC000537799672    0.1400
     47 H47       -10.4342   -3.8293   59.1668 H       1  ZINC000537799672    0.0800
     48 H48       -10.2509   -2.2788   58.3120 H       1  ZINC000537799672    0.0800
     49 H49       -10.2454   -0.7883   59.8771 H       1  ZINC000537799672    0.0600
     50 H50       -12.3615    0.1355   60.7405 H       1  ZINC000537799672    0.0800
     51 H51       -12.3691   -1.0657   62.0556 H       1  ZINC000537799672    0.0800
     52 H52       -10.2536    1.0872   61.5952 H       1  ZINC000537799672    0.0500
     53 H53       -11.4874    1.0861   62.8783 H       1  ZINC000537799672    0.1000
     54 H54        -8.4795   -0.5700   61.6934 H       1  ZINC000537799672    0.0500
     55 H55        -8.4747   -1.7282   63.0453 H       1  ZINC000537799672    0.1000
     56 H56       -10.5109   -2.8015   62.1586 H       1  ZINC000537799672    0.0800
     57 H57        -9.2373   -2.7829   60.9136 H       1  ZINC000537799672    0.0800
@<TRIPOS>BOND
     1     1     2    1
     2     1    32    1
     3     1    33    1
     4     1    34    1
     5     2     3    1
     6     3     4    1
     7     3     5    1
     8     3    12    1
     9     5    11   ar
    10     5     6   ar
    11     6     7   ar
    12     6    35    1
    13     7     8   ar
    14     7    36    1
    15     8     9    1
    16     8    10   ar
    17    10    11   ar
    18    10    37    1
    19    11    38    1
    20    12    13    1
    21    12    14    1
    22    12    15    1
    23    14    39    1
    24    14    40    1
    25    14    41    1
    26    15    16   am
    27    15    42    1
    28    16    17    2
    29    16    18    1
    30    18    23   ar
    31    18    19   ar
    32    19    20   ar
    33    19    43    1
    34    20    21   ar
    35    20    44    1
    36    21    22   ar
    37    21    45    1
    38    22    23   ar
    39    22    46    1
    40    23    24    1
    41    24    25    1
    42    24    47    1
    43    24    48    1
    44    25    26    1
    45    26    31    1
    46    26    27    1
    47    26    49    1
    48    27    28    1
    49    27    50    1
    50    27    51    1
    51    28    29    1
    52    28    52    1
    53    28    53    1
    54    29    30    1
    55    30    31    1
    56    30    54    1
    57    30    55    1
    58    31    56    1
    59    31    57    1
@<TRIPOS>SUBSTRUCTURE
     1 ZINC000537799672        1 TEMP              0 ****  ****    0 ROOT


##########                                Name:    ZINC001053792610
##########                DOCK_Rotatable_Bonds:                   5
##########                         Heavy_Atoms:                  25
##########                    Molecular_Weight:             347.374
##########                DOCK_Rotatable_Bonds:                   5
##########                       Formal_Charge:          -0.0400001
##########                     HBond_Acceptors:                   9
##########                        HBond_Donors:                   2
##########                         Heavy_Atoms:                  25
##########                          Grid_Score:          -28.863554
##########                     Grid_vdw_energy:          -28.426203
##########                      Grid_es_energy:           -0.437352
##########           Internal_energy_repulsive:            5.576026

@<TRIPOS>MOLECULE
ZINC001053792610
 46 49 1 0 0
SMALL
USER_CHARGES


@<TRIPOS>ATOM
      1 C1        -14.5326   -6.4997   56.6363 C.3     1  ZINC001053792610   -0.1000
      2 C2        -13.5310   -5.4098   56.9196 C.ar    1  ZINC001053792610    0.0800
      3 C3        -13.6838   -4.1626   56.3408 C.ar    1  ZINC001053792610    0.0600
      4 N4        -12.8054   -3.2069   56.5891 N.ar    1  ZINC001053792610   -0.4200
      5 C5        -11.7815   -3.4425   57.3901 C.ar    1  ZINC001053792610    0.0800
      6 C6        -10.7802   -2.3526   57.6736 C.3     1  ZINC001053792610    0.0700
      7 N7        -10.3352   -2.4477   59.0704 N.3     1  ZINC001053792610   -0.4500
      8 C8        -11.2806   -1.7636   59.9745 C.3     1  ZINC001053792610   -0.0100
      9 C9        -10.0699   -1.2054   60.7198 C.3     1  ZINC001053792610    0.0800
     10 C10        -9.3515   -1.3930   59.3852 C.3     1  ZINC001053792610   -0.0100
     11 C11       -10.2061    0.2509   61.1913 C.3     1  ZINC001053792610   -0.1500
     12 C12       -10.2792    0.0844   62.7354 C.3     1  ZINC001053792610    0.1100
     13 H13        -9.8857    0.9645   63.2442 H       1  ZINC001053792610    0.1200
     14 N14       -11.6479   -0.2046   63.1707 N.am    1  ZINC001053792610   -0.7100
     15 C15       -12.4841    0.8058   63.4808 C.2     1  ZINC001053792610    0.5000
     16 O16       -12.1039    1.9546   63.3981 O.2     1  ZINC001053792610   -0.5100
     17 C17       -13.8914    0.5084   63.9302 C.3     1  ZINC001053792610    0.0800
     18 H18       -13.9399    0.4459   65.0173 H       1  ZINC001053792610    0.1300
     19 C19       -14.8652    1.5813   63.4059 C.3     1  ZINC001053792610    0.0500
     20 O20       -15.7885    0.8364   62.5599 O.3     1  ZINC001053792610   -0.3200
     21 C21       -15.4491   -0.4576   62.5606 C.2     1  ZINC001053792610    0.6500
     22 O22       -16.0562   -1.3026   61.9333 O.2     1  ZINC001053792610   -0.5100
     23 N23       -14.3765   -0.7384   63.3188 N.am    1  ZINC001053792610   -0.7100
     24 C24        -9.3548   -1.1421   62.9460 C.3     1  ZINC001053792610    0.0400
     25 O25        -9.5876   -1.9894   61.8064 O.3     1  ZINC001053792610   -0.3300
     26 C26       -11.6286   -4.6902   57.9690 C.ar    1  ZINC001053792610    0.0600
     27 N27       -12.5098   -5.6440   57.7250 N.ar    1  ZINC001053792610   -0.4400
     28 H28       -15.3366   -6.4541   57.3709 H       1  ZINC001053792610    0.0800
     29 H29       -14.9456   -6.3629   55.6369 H       1  ZINC001053792610    0.0800
     30 H30       -14.0402   -7.4703   56.6963 H       1  ZINC001053792610    0.0800
     31 H31       -14.5206   -3.9701   55.6859 H       1  ZINC001053792610    0.1700
     32 H32        -9.9224   -2.4658   57.0106 H       1  ZINC001053792610    0.1000
     33 H33       -11.2437   -1.3806   57.5054 H       1  ZINC001053792610    0.0600
     34 H34       -11.8780   -0.9976   59.4801 H       1  ZINC001053792610    0.0800
     35 H35       -11.8821   -2.4478   60.5730 H       1  ZINC001053792610    0.0900
     36 H36        -8.3324   -1.7658   59.4886 H       1  ZINC001053792610    0.1000
     37 H37        -9.4194   -0.5253   58.7291 H       1  ZINC001053792610    0.0800
     38 H38        -9.3330    0.8365   60.9037 H       1  ZINC001053792610    0.1000
     39 H39       -11.1201    0.7015   60.8046 H       1  ZINC001053792610    0.1000
     40 H40       -11.9523   -1.1233   63.2357 H       1  ZINC001053792610    0.4000
     41 H41       -15.3983    2.0504   64.2328 H       1  ZINC001053792610    0.1200
     42 H42       -14.3304    2.3298   62.8212 H       1  ZINC001053792610    0.1100
     43 H43       -13.9860   -1.6181   63.4399 H       1  ZINC001053792610    0.4400
     44 H44        -8.3114   -0.8283   62.9770 H       1  ZINC001053792610    0.0800
     45 H45        -9.6213   -1.6632   63.8655 H       1  ZINC001053792610    0.0900
     46 H46       -10.7916   -4.8829   58.6237 H       1  ZINC001053792610    0.1600
@<TRIPOS>BOND
     1     1     2    1
     2     1    28    1
     3     1    29    1
     4     1    30    1
     5     2    27   ar
     6     2     3   ar
     7     3     4   ar
     8     3    31    1
     9     4     5   ar
    10     5     6    1
    11     5    26   ar
    12     6     7    1
    13     6    32    1
    14     6    33    1
    15     7    10    1
    16     7     8    1
    17     8     9    1
    18     8    34    1
    19     8    35    1
    20     9    25    1
    21     9    10    1
    22     9    11    1
    23    10    36    1
    24    10    37    1
    25    11    12    1
    26    11    38    1
    27    11    39    1
    28    12    13    1
    29    12    14    1
    30    12    24    1
    31    14    15   am
    32    14    40    1
    33    15    16    2
    34    15    17    1
    35    17    18    1
    36    17    23    1
    37    17    19    1
    38    19    20    1
    39    19    41    1
    40    19    42    1
    41    20    21    1
    42    21    22    2
    43    21    23   am
    44    23    43    1
    45    24    25    1
    46    24    44    1
    47    24    45    1
    48    26    27   ar
    49    26    46    1
@<TRIPOS>SUBSTRUCTURE
     1 ZINC001053792610        1 TEMP              0 ****  ****    0 ROOT


##########                                Name:    ZINC000859202493
##########                DOCK_Rotatable_Bonds:                  11
##########                         Heavy_Atoms:                  25
##########                    Molecular_Weight:             382.404
##########                DOCK_Rotatable_Bonds:                  11
##########                       Formal_Charge:          -0.0200009
##########                     HBond_Acceptors:                  10
##########                        HBond_Donors:                   3
##########                         Heavy_Atoms:                  25
##########                          Grid_Score:          -28.839054
##########                     Grid_vdw_energy:          -28.227650
##########                      Grid_es_energy:           -0.611404
##########           Internal_energy_repulsive:           22.421444

@<TRIPOS>MOLECULE
ZINC000859202493
 46 46 1 0 0
SMALL
USER_CHARGES


@<TRIPOS>ATOM
      1 C1          3.7765    2.3552   53.5993 C.3     1  ZINC000859202493   -0.1500
      2 C2          3.7015    2.5570   52.0846 C.3     1  ZINC000859202493   -0.1200
      3 C3          2.4571    1.8547   51.5375 C.3     1  ZINC000859202493   -0.1000
      4 H4          1.5671    2.2756   52.0053 H       1  ZINC000859202493    0.0700
      5 C5          2.5376    0.3588   51.8482 C.3     1  ZINC000859202493   -0.1600
      6 C6          2.3814    2.0576   50.0229 C.3     1  ZINC000859202493   -0.1200
      7 C7          1.3164    3.1082   49.7017 C.3     1  ZINC000859202493    0.1600
      8 H8          1.2632    3.2534   48.6227 H       1  ZINC000859202493    0.1000
      9 C9          1.6851    4.4309   50.3766 C.3     1  ZINC000859202493    0.0500
     10 O10         2.9297    4.9011   49.8552 O.3     1  ZINC000859202493   -0.5700
     11 N11         0.0157    2.6526   50.1981 N.am    1  ZINC000859202493   -1.1000
     12 S12        -1.3232    2.7573   49.2291 S.o2    1  ZINC000859202493    2.6900
     13 O13        -2.3758    2.1062   49.9274 O.2     1  ZINC000859202493   -0.9500
     14 O14        -1.3984    4.1076   48.7930 O.2     1  ZINC000859202493   -0.9500
     15 C15        -1.0046    1.7875   47.7928 C.ar    1  ZINC000859202493   -0.6600
     16 C16        -1.1201    0.4109   47.8495 C.ar    1  ZINC000859202493   -0.0300
     17 C17        -0.8704   -0.3538   46.7245 C.ar    1  ZINC000859202493   -0.1100
     18 C18        -0.5053    0.2559   45.5404 C.ar    1  ZINC000859202493   -0.0600
     19 C19        -0.3888    1.6386   45.4801 C.ar    1  ZINC000859202493    0.1200
     20 N20        -0.0195    2.2594   44.2818 N.am    1  ZINC000859202493   -0.6500
     21 C21         1.2805    2.5010   44.0207 C.2     1  ZINC000859202493    0.4800
     22 O22         2.1302    2.1803   44.8245 O.2     1  ZINC000859202493   -0.4500
     23 C23         1.6782    3.1696   42.7301 C.3     1  ZINC000859202493    0.4600
     24 F24         1.1094    4.4465   42.6717 F       1  ZINC000859202493   -0.1500
     25 F25         3.0718    3.2769   42.6706 F       1  ZINC000859202493   -0.1600
     26 F26         1.2227    2.4064   41.6498 F       1  ZINC000859202493   -0.1600
     27 C27        -0.6453    2.4039   46.6099 C.ar    1  ZINC000859202493   -0.0300
     28 H28         4.6629    2.8555   53.9890 H       1  ZINC000859202493    0.0500
     29 H29         2.8865    2.7767   54.0666 H       1  ZINC000859202493    0.0500
     30 H30         3.8334    1.2896   53.8215 H       1  ZINC000859202493    0.0600
     31 H31         3.6444    3.6226   51.8624 H       1  ZINC000859202493    0.0600
     32 H32         4.5914    2.1355   51.6173 H       1  ZINC000859202493    0.0600
     33 H33         1.6511   -0.1415   51.4584 H       1  ZINC000859202493    0.0500
     34 H34         3.4277   -0.0620   51.3803 H       1  ZINC000859202493    0.0600
     35 H35         2.5916    0.2142   52.9272 H       1  ZINC000859202493    0.0600
     36 H36         3.3491    2.3963   49.6528 H       1  ZINC000859202493    0.0800
     37 H37         2.1184    1.1151   49.5427 H       1  ZINC000859202493    0.0800
     38 H38         0.9070    5.1684   50.1799 H       1  ZINC000859202493    0.0600
     39 H39         1.7765    4.2771   51.4518 H       1  ZINC000859202493    0.0600
     40 H40         2.9147    5.0833   48.9057 H       1  ZINC000859202493    0.3800
     41 H41        -0.0615    2.2896   51.0942 H       1  ZINC000859202493    0.4200
     42 H42        -1.4055   -0.0682   48.7742 H       1  ZINC000859202493    0.1500
     43 H43        -0.9608   -1.4290   46.7722 H       1  ZINC000859202493    0.1400
     44 H44        -0.3101   -0.3419   44.6624 H       1  ZINC000859202493    0.1400
     45 H45        -0.6991    2.5158   43.6388 H       1  ZINC000859202493    0.4200
     46 H46        -0.5556    3.4793   46.5662 H       1  ZINC000859202493    0.1500
@<TRIPOS>BOND
     1     1     2    1
     2     1    28    1
     3     1    29    1
     4     1    30    1
     5     2     3    1
     6     2    31    1
     7     2    32    1
     8     3     4    1
     9     3     5    1
    10     3     6    1
    11     5    33    1
    12     5    34    1
    13     5    35    1
    14     6     7    1
    15     6    36    1
    16     6    37    1
    17     7     8    1
    18     7     9    1
    19     7    11    1
    20     9    10    1
    21     9    38    1
    22     9    39    1
    23    10    40    1
    24    11    12   am
    25    11    41    1
    26    12    13    2
    27    12    14    2
    28    12    15    1
    29    15    27   ar
    30    15    16   ar
    31    16    17   ar
    32    16    42    1
    33    17    18   ar
    34    17    43    1
    35    18    19   ar
    36    18    44    1
    37    19    20    1
    38    19    27   ar
    39    20    21   am
    40    20    45    1
    41    21    22    2
    42    21    23    1
    43    23    24    1
    44    23    25    1
    45    23    26    1
    46    27    46    1
@<TRIPOS>SUBSTRUCTURE
     1 ZINC000859202493        1 TEMP              0 ****  ****    0 ROOT


##########                                Name:    ZINC000980108339
##########                DOCK_Rotatable_Bonds:                   9
##########                         Heavy_Atoms:                  25
##########                    Molecular_Weight:             348.445
##########                DOCK_Rotatable_Bonds:                   9
##########                       Formal_Charge:          -0.0100001
##########                     HBond_Acceptors:                   7
##########                        HBond_Donors:                   3
##########                         Heavy_Atoms:                  25
##########                          Grid_Score:          -28.835386
##########                     Grid_vdw_energy:          -28.169306
##########                      Grid_es_energy:           -0.666080
##########           Internal_energy_repulsive:            7.206721

@<TRIPOS>MOLECULE
ZINC000980108339
 53 56 1 0 0
SMALL
USER_CHARGES


@<TRIPOS>ATOM
      1 C1        -15.6813   -6.8658   54.0565 C.3     1  ZINC000980108339    0.1200
      2 N2        -15.2317   -5.9711   55.1260 N.am    1  ZINC000980108339   -0.6400
      3 C3        -15.2335   -4.5018   55.0647 C.3     1  ZINC000980108339    0.1100
      4 C4        -14.6692   -4.0745   56.4336 C.3     1  ZINC000980108339    0.1000
      5 H5        -13.7440   -3.5122   56.3076 H       1  ZINC000980108339    0.1200
      6 C6        -15.6836   -3.2580   57.1922 C.2     1  ZINC000980108339    0.5000
      7 O7        -15.8485   -2.0883   56.9172 O.2     1  ZINC000980108339   -0.5200
      8 N8        -16.4075   -3.8275   58.1761 N.am    1  ZINC000980108339   -0.7200
      9 C9        -17.3923   -3.0333   58.9146 C.3     1  ZINC000980108339    0.1300
     10 C10       -16.6775   -2.1881   59.9708 C.3     1  ZINC000980108339   -0.1200
     11 H11       -16.0734   -1.3911   59.5372 H       1  ZINC000980108339    0.1000
     12 C12       -17.5986   -1.7141   61.1073 C.3     1  ZINC000980108339   -0.1400
     13 C13       -16.4331   -2.0054   62.0674 C.3     1  ZINC000980108339    0.1200
     14 H14       -16.7452   -2.4601   63.0076 H       1  ZINC000980108339    0.1100
     15 N15       -15.5312   -0.8668   62.2579 N.am    1  ZINC000980108339   -0.7200
     16 C16       -14.8918   -0.7028   63.4329 C.2     1  ZINC000980108339    0.5200
     17 O17       -15.0620   -1.4987   64.3321 O.2     1  ZINC000980108339   -0.5300
     18 C18       -13.9653    0.4695   63.6295 C.3     1  ZINC000980108339   -0.1100
     19 C19       -12.5611    0.0956   63.1511 C.3     1  ZINC000980108339   -0.1300
     20 H20       -12.2906   -0.9545   63.2619 H       1  ZINC000980108339    0.1200
     21 C21       -11.4523    1.1338   63.3351 C.3     1  ZINC000980108339   -0.1700
     22 C22       -12.0056    0.8439   61.9376 C.3     1  ZINC000980108339   -0.1200
     23 H23       -12.6405    1.6027   61.4803 H       1  ZINC000980108339    0.1000
     24 C24       -11.1125    0.0616   60.9726 C.3     1  ZINC000980108339   -0.1300
     25 C25       -11.5476   -1.3572   60.6001 C.3     1  ZINC000980108339   -0.1800
     26 C26       -11.6649   -0.2271   59.5753 C.3     1  ZINC000980108339   -0.1800
     27 C27       -15.9315   -3.0220   61.0257 C.3     1  ZINC000980108339   -0.1400
     28 N28       -14.4095   -5.3484   57.1208 N.am    1  ZINC000980108339   -0.7200
     29 C29       -14.7592   -6.3613   56.3170 C.2     1  ZINC000980108339    0.7000
     30 O30       -14.6491   -7.5293   56.6363 O.2     1  ZINC000980108339   -0.5800
     31 H31       -15.5718   -7.9012   54.3790 H       1  ZINC000980108339    0.0900
     32 H32       -16.7284   -6.6644   53.8305 H       1  ZINC000980108339    0.0600
     33 H33       -15.0781   -6.6973   53.1644 H       1  ZINC000980108339    0.0600
     34 H34       -14.5883   -4.1517   54.2588 H       1  ZINC000980108339    0.1000
     35 H35       -16.2481   -4.1255   54.9347 H       1  ZINC000980108339    0.0900
     36 H36       -16.2765   -4.7634   58.3951 H       1  ZINC000980108339    0.4000
     37 H37       -17.9230   -2.3784   58.2235 H       1  ZINC000980108339    0.0700
     38 H38       -18.1038   -3.6993   59.4028 H       1  ZINC000980108339    0.0700
     39 H39       -17.8600   -0.6576   61.0458 H       1  ZINC000980108339    0.0800
     40 H40       -18.4647   -2.3570   61.2642 H       1  ZINC000980108339    0.1000
     41 H41       -15.3941   -0.2309   61.5383 H       1  ZINC000980108339    0.4000
     42 H42       -14.3301    1.3211   63.0552 H       1  ZINC000980108339    0.1000
     43 H43       -13.9311    0.7321   64.6868 H       1  ZINC000980108339    0.1000
     44 H44       -11.7234    2.0832   63.7970 H       1  ZINC000980108339    0.0900
     45 H45       -10.4524    0.7667   63.5666 H       1  ZINC000980108339    0.1000
     46 H46       -10.0432    0.2534   61.0613 H       1  ZINC000980108339    0.1000
     47 H47       -10.7645   -2.0991   60.4437 H       1  ZINC000980108339    0.0900
     48 H48       -12.4701   -1.7331   61.0425 H       1  ZINC000980108339    0.0900
     49 H49       -12.6646    0.1404   59.3436 H       1  ZINC000980108339    0.0900
     50 H50       -10.9589   -0.2255   58.7449 H       1  ZINC000980108339    0.0900
     51 H51       -16.3416   -4.0229   61.1599 H       1  ZINC000980108339    0.1000
     52 H52       -14.8488   -3.0203   60.9002 H       1  ZINC000980108339    0.0800
     53 H53       -14.0466   -5.4405   58.0156 H       1  ZINC000980108339    0.4400
@<TRIPOS>BOND
     1     1     2    1
     2     1    31    1
     3     1    32    1
     4     1    33    1
     5     2    29   am
     6     2     3    1
     7     3     4    1
     8     3    34    1
     9     3    35    1
    10     4     5    1
    11     4     6    1
    12     4    28    1
    13     6     7    2
    14     6     8   am
    15     8     9    1
    16     8    36    1
    17     9    10    1
    18     9    37    1
    19     9    38    1
    20    10    11    1
    21    10    27    1
    22    10    12    1
    23    12    13    1
    24    12    39    1
    25    12    40    1
    26    13    14    1
    27    13    15    1
    28    13    27    1
    29    15    16   am
    30    15    41    1
    31    16    17    2
    32    16    18    1
    33    18    19    1
    34    18    42    1
    35    18    43    1
    36    19    20    1
    37    19    22    1
    38    19    21    1
    39    21    22    1
    40    21    44    1
    41    21    45    1
    42    22    23    1
    43    22    24    1
    44    24    26    1
    45    24    25    1
    46    24    46    1
    47    25    26    1
    48    25    47    1
    49    25    48    1
    50    26    49    1
    51    26    50    1
    52    27    51    1
    53    27    52    1
    54    28    29   am
    55    28    53    1
    56    29    30    2
@<TRIPOS>SUBSTRUCTURE
     1 ZINC000980108339        1 TEMP              0 ****  ****    0 ROOT


##########                                Name:    ZINC000572148596
##########                DOCK_Rotatable_Bonds:                   4
##########                         Heavy_Atoms:                  26
##########                    Molecular_Weight:             371.463
##########                DOCK_Rotatable_Bonds:                   4
##########                       Formal_Charge:          -0.0199999
##########                     HBond_Acceptors:                   8
##########                        HBond_Donors:                   0
##########                         Heavy_Atoms:                  26
##########                          Grid_Score:          -28.830360
##########                     Grid_vdw_energy:          -28.828125
##########                      Grid_es_energy:           -0.002236
##########           Internal_energy_repulsive:            5.859816

@<TRIPOS>MOLECULE
ZINC000572148596
 47 50 1 0 0
SMALL
USER_CHARGES


@<TRIPOS>ATOM
      1 C1        -18.5655   -8.7292   52.0427 C.3     1  ZINC000572148596   -0.1400
      2 C2        -18.0909   -7.2753   52.0890 C.3     1  ZINC000572148596    0.0800
      3 H3        -18.9153   -6.6338   52.4002 H       1  ZINC000572148596    0.1200
      4 C4        -16.9565   -7.1482   53.0729 C.2     1  ZINC000572148596    0.1800
      5 N5        -16.0918   -8.0727   53.3711 N.2     1  ZINC000572148596   -0.3500
      6 O6        -15.3021   -7.6654   54.1966 O.3     1  ZINC000572148596    0.0900
      7 C7        -15.5970   -6.3956   54.5166 C.2     1  ZINC000572148596    0.2300
      8 C8        -14.8785   -5.5396   55.4811 C.ar    1  ZINC000572148596   -0.1200
      9 C9        -14.8931   -4.1441   55.3420 C.ar    1  ZINC000572148596   -0.0100
     10 C10       -14.2127   -3.3890   56.2600 C.ar    1  ZINC000572148596   -0.1900
     11 C11       -13.5315   -4.0229   57.2965 C.ar    1  ZINC000572148596    0.3400
     12 N12       -12.8422   -3.2616   58.2277 N.3     1  ZINC000572148596   -0.4700
     13 C13       -13.7604   -2.4033   58.9901 C.3     1  ZINC000572148596    0.0300
     14 C14       -12.9673   -1.6263   60.0443 C.3     1  ZINC000572148596    0.0900
     15 H15       -13.6347   -0.9465   60.5740 H       1  ZINC000572148596    0.1100
     16 C16       -12.3425   -2.6069   61.0389 C.3     1  ZINC000572148596   -0.1800
     17 O17       -11.9346   -0.8760   59.3995 O.3     1  ZINC000572148596   -0.3700
     18 C18       -11.0217   -1.6807   58.6482 C.3     1  ZINC000572148596    0.0800
     19 H19       -10.5194   -2.3808   59.3157 H       1  ZINC000572148596    0.0700
     20 C20        -9.9827   -0.7815   57.9752 C.3     1  ZINC000572148596   -0.1400
     21 C21       -11.7951   -2.4581   57.5799 C.3     1  ZINC000572148596    0.0300
     22 N22       -13.5337   -5.3443   57.4051 N.ar    1  ZINC000572148596   -0.5200
     23 C23       -14.1798   -6.1069   56.5476 C.ar    1  ZINC000572148596    0.1900
     24 N24       -16.6526   -6.0590   53.7953 N.2     1  ZINC000572148596   -0.4700
     25 C25       -17.6182   -6.8573   50.7205 C.2     1  ZINC000572148596    0.0400
     26 N26       -17.1025   -7.6505   49.8431 N.2     1  ZINC000572148596   -0.4500
     27 C27       -16.7415   -7.1201   48.6921 C.2     1  ZINC000572148596    0.0400
     28 C28       -16.9652   -5.8062   48.5929 C.2     1  ZINC000572148596   -0.2500
     29 S29       -17.6943   -5.2648   50.1028 S.3     1  ZINC000572148596    0.1400
     30 H30       -17.7410   -9.3707   51.7314 H       1  ZINC000572148596    0.0800
     31 H31       -18.9074   -9.0314   53.0324 H       1  ZINC000572148596    0.0700
     32 H32       -19.3860   -8.8210   51.3310 H       1  ZINC000572148596    0.0800
     33 H33       -15.4284   -3.6756   54.5294 H       1  ZINC000572148596    0.1500
     34 H34       -14.2041   -2.3119   56.1807 H       1  ZINC000572148596    0.1500
     35 H35       -14.2501   -1.7027   58.3137 H       1  ZINC000572148596    0.0600
     36 H36       -14.5118   -3.0209   59.4821 H       1  ZINC000572148596    0.1000
     37 H37       -11.6741   -3.2855   60.5089 H       1  ZINC000572148596    0.0700
     38 H38       -11.7780   -2.0532   61.7891 H       1  ZINC000572148596    0.0600
     39 H39       -13.1303   -3.1806   61.5272 H       1  ZINC000572148596    0.0700
     40 H40        -9.4352   -0.2261   58.7366 H       1  ZINC000572148596    0.0700
     41 H41        -9.2873   -1.3954   57.4028 H       1  ZINC000572148596    0.0700
     42 H42       -10.4855   -0.0826   57.3067 H       1  ZINC000572148596    0.0600
     43 H43       -11.1120   -3.1157   57.0424 H       1  ZINC000572148596    0.1000
     44 H44       -12.2534   -1.7584   56.8809 H       1  ZINC000572148596    0.0600
     45 H45       -14.1611   -7.1803   56.6651 H       1  ZINC000572148596    0.1700
     46 H46       -16.3007   -7.6995   47.8944 H       1  ZINC000572148596    0.1800
     47 H47       -16.7421   -5.1865   47.7370 H       1  ZINC000572148596    0.1800
@<TRIPOS>BOND
     1     1     2    1
     2     1    30    1
     3     1    31    1
     4     1    32    1
     5     2     3    1
     6     2     4    1
     7     2    25    1
     8     4    24    1
     9     4     5    2
    10     5     6    1
    11     6     7    1
    12     7     8    1
    13     7    24    2
    14     8    23   ar
    15     8     9   ar
    16     9    10   ar
    17     9    33    1
    18    10    11   ar
    19    10    34    1
    20    11    12    1
    21    11    22   ar
    22    12    21    1
    23    12    13    1
    24    13    14    1
    25    13    35    1
    26    13    36    1
    27    14    15    1
    28    14    16    1
    29    14    17    1
    30    16    37    1
    31    16    38    1
    32    16    39    1
    33    17    18    1
    34    18    19    1
    35    18    20    1
    36    18    21    1
    37    20    40    1
    38    20    41    1
    39    20    42    1
    40    21    43    1
    41    21    44    1
    42    22    23   ar
    43    23    45    1
    44    25    29    1
    45    25    26    2
    46    26    27    1
    47    27    28    2
    48    27    46    1
    49    28    29    1
    50    28    47    1
@<TRIPOS>SUBSTRUCTURE
     1 ZINC000572148596        1 TEMP              0 ****  ****    0 ROOT


##########                                Name:    ZINC000129637895
##########                DOCK_Rotatable_Bonds:                   7
##########                         Heavy_Atoms:                  26
##########                    Molecular_Weight:             374.464
##########                DOCK_Rotatable_Bonds:                   7
##########                       Formal_Charge:        -5.51343e-07
##########                     HBond_Acceptors:                   8
##########                        HBond_Donors:                   1
##########                         Heavy_Atoms:                  26
##########                          Grid_Score:          -28.823715
##########                     Grid_vdw_energy:          -28.821278
##########                      Grid_es_energy:           -0.002437
##########           Internal_energy_repulsive:           21.970495

@<TRIPOS>MOLECULE
ZINC000129637895
 48 50 1 0 0
SMALL
USER_CHARGES


@<TRIPOS>ATOM
      1 C1         -6.6716    0.8833   53.1807 C.3     1  ZINC000129637895   -0.1500
      2 C2         -7.7021    0.3114   52.2051 C.3     1  ZINC000129637895   -0.0500
      3 C3         -8.9964    1.0716   52.3389 C.2     1  ZINC000129637895    0.0300
      4 C4         -9.9683    0.7125   53.1966 C.2     1  ZINC000129637895   -0.0200
      5 N5         -9.9352   -0.3774   54.0654 N.am    1  ZINC000129637895   -0.5900
      6 C6        -10.8987   -0.5270   54.9960 C.2     1  ZINC000129637895    0.5000
      7 O7        -11.7962    0.2868   55.0767 O.2     1  ZINC000129637895   -0.4800
      8 C8        -10.8622   -1.6928   55.9272 C.2     1  ZINC000129637895    0.5200
      9 O9        -11.4017   -2.7347   55.6165 O.2     1  ZINC000129637895   -0.5100
     10 N10       -10.2302   -1.5886   57.1130 N.am    1  ZINC000129637895   -0.5800
     11 C11        -9.5755   -0.3334   57.5117 C.3     1  ZINC000129637895    0.0800
     12 C12       -10.0664    0.0484   58.9121 C.3     1  ZINC000129637895    0.0400
     13 N13        -9.8536   -1.0811   59.8270 N.3     1  ZINC000129637895   -0.4900
     14 C14       -10.1364   -0.7174   61.1455 C.ar    1  ZINC000129637895    0.1500
     15 C15        -9.1800   -0.8971   62.1372 C.ar    1  ZINC000129637895   -0.2100
     16 C16        -9.4599   -0.5369   63.4412 C.ar    1  ZINC000129637895   -0.0500
     17 C17       -10.6908    0.0024   63.7628 C.ar    1  ZINC000129637895   -0.2300
     18 C18       -11.6502    0.1843   62.7763 C.ar    1  ZINC000129637895    0.1500
     19 O19       -12.8601    0.7152   63.0943 O.3     1  ZINC000129637895   -0.3200
     20 C20       -14.0162   -0.0454   62.7381 C.3     1  ZINC000129637895    0.0300
     21 C21       -11.3715   -0.1705   61.4661 C.ar    1  ZINC000129637895   -0.1700
     22 C22       -10.6444   -2.2509   59.4224 C.3     1  ZINC000129637895    0.0400
     23 C23       -10.1824   -2.7250   58.0454 C.3     1  ZINC000129637895    0.1100
     24 S24       -11.2904    1.8651   53.0279 S.3     1  ZINC000129637895    0.2400
     25 C25       -10.4131    2.7110   51.8290 C.2     1  ZINC000129637895   -0.0300
     26 N26        -9.2700    2.1480   51.6294 N.2     1  ZINC000129637895   -0.4500
     27 H27        -6.5002    1.9354   52.9529 H       1  ZINC000129637895    0.0600
     28 H28        -7.0448    0.7885   54.2004 H       1  ZINC000129637895    0.0500
     29 H29        -5.7354    0.3334   53.0840 H       1  ZINC000129637895    0.0700
     30 H30        -7.3288    0.4062   51.1854 H       1  ZINC000129637895    0.0900
     31 H31        -7.8735   -0.7406   52.4329 H       1  ZINC000129637895    0.0700
     32 H32        -9.2189   -1.0281   54.0001 H       1  ZINC000129637895    0.4300
     33 H33        -8.4946   -0.4735   57.5282 H       1  ZINC000129637895    0.0900
     34 H34        -9.8345    0.4553   56.8052 H       1  ZINC000129637895    0.1400
     35 H35        -9.5101    0.9152   59.2688 H       1  ZINC000129637895    0.1000
     36 H36       -11.1288    0.2888   58.8721 H       1  ZINC000129637895    0.0500
     37 H37        -8.2175   -1.3191   61.8885 H       1  ZINC000129637895    0.1300
     38 H38        -8.7153   -0.6773   64.2108 H       1  ZINC000129637895    0.1300
     39 H39       -10.9068    0.2823   64.7833 H       1  ZINC000129637895    0.1300
     40 H40       -14.0357   -0.1927   61.6584 H       1  ZINC000129637895    0.0600
     41 H41       -13.9814   -1.0141   63.2365 H       1  ZINC000129637895    0.0600
     42 H42       -14.9133    0.4906   63.0480 H       1  ZINC000129637895    0.1000
     43 H43       -12.1167   -0.0293   60.6971 H       1  ZINC000129637895    0.1300
     44 H44       -10.5074   -3.0516   60.1492 H       1  ZINC000129637895    0.1000
     45 H45       -11.6989   -1.9786   59.3752 H       1  ZINC000129637895    0.0500
     46 H46       -10.8403   -3.5189   57.6918 H       1  ZINC000129637895    0.1100
     47 H47        -9.1592   -3.0952   58.1099 H       1  ZINC000129637895    0.0900
     48 H48       -10.7641    3.5936   51.3151 H       1  ZINC000129637895    0.2000
@<TRIPOS>BOND
     1     1     2    1
     2     1    27    1
     3     1    28    1
     4     1    29    1
     5     2     3    1
     6     2    30    1
     7     2    31    1
     8     3    26    1
     9     3     4    2
    10     4     5    1
    11     4    24    1
    12     5     6   am
    13     5    32    1
    14     6     7    2
    15     6     8    1
    16     8     9    2
    17     8    10   am
    18    10    23    1
    19    10    11    1
    20    11    12    1
    21    11    33    1
    22    11    34    1
    23    12    13    1
    24    12    35    1
    25    12    36    1
    26    13    14    1
    27    13    22    1
    28    14    21   ar
    29    14    15   ar
    30    15    16   ar
    31    15    37    1
    32    16    17   ar
    33    16    38    1
    34    17    18   ar
    35    17    39    1
    36    18    19    1
    37    18    21   ar
    38    19    20    1
    39    20    40    1
    40    20    41    1
    41    20    42    1
    42    21    43    1
    43    22    23    1
    44    22    44    1
    45    22    45    1
    46    23    46    1
    47    23    47    1
    48    24    25    1
    49    25    26    2
    50    25    48    1
@<TRIPOS>SUBSTRUCTURE
     1 ZINC000129637895        1 TEMP              0 ****  ****    0 ROOT


##########                                Name:    ZINC000547864253
##########                DOCK_Rotatable_Bonds:                   6
##########                         Heavy_Atoms:                  30
##########                    Molecular_Weight:             422.548
##########                DOCK_Rotatable_Bonds:                   6
##########                       Formal_Charge:           0.0300002
##########                     HBond_Acceptors:                   6
##########                        HBond_Donors:                   2
##########                         Heavy_Atoms:                  30
##########                          Grid_Score:          -28.813936
##########                     Grid_vdw_energy:          -27.394644
##########                      Grid_es_energy:           -1.419292
##########           Internal_energy_repulsive:           21.716385

@<TRIPOS>MOLECULE
ZINC000547864253
 56 60 1 0 0
SMALL
USER_CHARGES


@<TRIPOS>ATOM
      1 O1        -11.0929   -3.9364   57.5587 O.2     1  ZINC000547864253   -0.5300
      2 C2        -11.4522   -2.8039   57.8019 C.2     1  ZINC000547864253    0.5400
      3 N3        -12.6238   -2.3493   57.3146 N.am    1  ZINC000547864253   -0.7200
      4 C4        -13.4602   -3.2214   56.4863 C.3     1  ZINC000547864253    0.1300
      5 C5        -14.8123   -2.5485   56.2413 C.3     1  ZINC000547864253    0.0200
      6 H6        -14.6568   -1.4957   56.0058 H       1  ZINC000547864253    0.0900
      7 C7        -15.5078   -3.2239   55.0876 C.2     1  ZINC000547864253   -0.1600
      8 C8        -16.2614   -2.6279   54.1501 C.2     1  ZINC000547864253    0.0600
      9 N9        -16.7276   -3.5605   53.2639 N.pl3   1  ZINC000547864253   -0.5900
     10 C10       -16.2739   -4.8113   53.6186 C.ar    1  ZINC000547864253    0.1000
     11 C11       -16.4441   -6.0809   53.0770 C.ar    1  ZINC000547864253   -0.1300
     12 C12       -15.8459   -7.1671   53.6778 C.ar    1  ZINC000547864253   -0.1000
     13 C13       -15.0736   -7.0079   54.8199 C.ar    1  ZINC000547864253   -0.1400
     14 C14       -14.8930   -5.7695   55.3688 C.ar    1  ZINC000547864253   -0.0700
     15 C15       -15.4847   -4.6544   54.7729 C.ar    1  ZINC000547864253   -0.1000
     16 C16       -15.6635   -2.6658   57.4793 C.ar    1  ZINC000547864253   -0.0700
     17 C17       -15.7783   -3.8819   58.1265 C.ar    1  ZINC000547864253   -0.1100
     18 C18       -16.5591   -3.9896   59.2621 C.ar    1  ZINC000547864253   -0.1200
     19 C19       -17.2249   -2.8810   59.7507 C.ar    1  ZINC000547864253   -0.1200
     20 C20       -17.1094   -1.6646   59.1042 C.ar    1  ZINC000547864253   -0.1100
     21 C21       -16.3251   -1.5561   57.9710 C.ar    1  ZINC000547864253   -0.1200
     22 C22       -10.5917   -1.9068   58.6539 C.3     1  ZINC000547864253   -0.1700
     23 H23        -9.8580   -1.3081   58.1141 H       1  ZINC000547864253    0.1400
     24 C24       -10.2050   -2.4125   60.0449 C.3     1  ZINC000547864253   -0.1300
     25 C25       -11.2326   -1.2864   59.8983 C.3     1  ZINC000547864253   -0.1400
     26 C26       -10.7901    0.1248   60.2869 C.3     1  ZINC000547864253   -0.0700
     27 C27       -10.8820    0.2947   61.8049 C.3     1  ZINC000547864253   -0.6000
     28 S28       -12.6034    0.0546   62.3296 S.o2    1  ZINC000547864253    2.4200
     29 O29       -12.6433    0.0108   63.7494 O.2     1  ZINC000547864253   -0.9400
     30 O30       -13.4227    0.9885   61.6400 O.2     1  ZINC000547864253   -0.9300
     31 C31       -12.9504   -1.6082   61.6882 C.3     1  ZINC000547864253   -0.6000
     32 C32       -12.6964   -1.6288   60.1794 C.3     1  ZINC000547864253   -0.0700
     33 H33       -12.9131   -1.4449   57.5124 H       1  ZINC000547864253    0.4000
     34 H34       -12.9651   -3.4002   55.5320 H       1  ZINC000547864253    0.0800
     35 H35       -13.6146   -4.1708   56.9991 H       1  ZINC000547864253    0.0700
     36 H36       -16.4692   -1.5692   54.1024 H       1  ZINC000547864253    0.1700
     37 H37       -17.2934   -3.3691   52.4997 H       1  ZINC000547864253    0.4200
     38 H38       -17.0436   -6.2152   52.1887 H       1  ZINC000547864253    0.1200
     39 H39       -15.9797   -8.1523   53.2560 H       1  ZINC000547864253    0.1300
     40 H40       -14.6119   -7.8698   55.2787 H       1  ZINC000547864253    0.1200
     41 H41       -14.2907   -5.6533   56.2577 H       1  ZINC000547864253    0.1200
     42 H42       -15.2582   -4.7480   57.7446 H       1  ZINC000547864253    0.1200
     43 H43       -16.6494   -4.9399   59.7673 H       1  ZINC000547864253    0.1200
     44 H44       -17.8355   -2.9652   60.6376 H       1  ZINC000547864253    0.1200
     45 H45       -17.6297   -0.7986   59.4858 H       1  ZINC000547864253    0.1200
     46 H46       -16.2348   -0.6058   57.4658 H       1  ZINC000547864253    0.1200
     47 H47       -10.5728   -3.3940   60.3439 H       1  ZINC000547864253    0.1100
     48 H48        -9.2169   -2.1463   60.4204 H       1  ZINC000547864253    0.1100
     49 H49        -9.7606    0.2835   59.9659 H       1  ZINC000547864253    0.0900
     50 H50       -11.4373    0.8547   59.8005 H       1  ZINC000547864253    0.0900
     51 H51       -10.2461   -0.4438   62.2930 H       1  ZINC000547864253    0.1400
     52 H52       -10.5540    1.2973   62.0797 H       1  ZINC000547864253    0.1400
     53 H53       -12.2973   -2.3308   62.1774 H       1  ZINC000547864253    0.1400
     54 H54       -13.9913   -1.8647   61.8858 H       1  ZINC000547864253    0.1400
     55 H55       -13.3400   -0.8956   59.6933 H       1  ZINC000547864253    0.0900
     56 H56       -12.9183   -2.6215   59.7879 H       1  ZINC000547864253    0.0900
@<TRIPOS>BOND
     1     1     2    2
     2     2     3   am
     3     2    22    1
     4     3     4    1
     5     3    33    1
     6     4     5    1
     7     4    34    1
     8     4    35    1
     9     5     6    1
    10     5     7    1
    11     5    16    1
    12     7    15    1
    13     7     8    2
    14     8     9    1
    15     8    36    1
    16     9    10    1
    17     9    37    1
    18    10    15   ar
    19    10    11   ar
    20    11    12   ar
    21    11    38    1
    22    12    13   ar
    23    12    39    1
    24    13    14   ar
    25    13    40    1
    26    14    15   ar
    27    14    41    1
    28    16    21   ar
    29    16    17   ar
    30    17    18   ar
    31    17    42    1
    32    18    19   ar
    33    18    43    1
    34    19    20   ar
    35    19    44    1
    36    20    21   ar
    37    20    45    1
    38    21    46    1
    39    22    23    1
    40    22    25    1
    41    22    24    1
    42    24    25    1
    43    24    47    1
    44    24    48    1
    45    25    32    1
    46    25    26    1
    47    26    27    1
    48    26    49    1
    49    26    50    1
    50    27    28    1
    51    27    51    1
    52    27    52    1
    53    28    29    2
    54    28    30    2
    55    28    31    1
    56    31    32    1
    57    31    53    1
    58    31    54    1
    59    32    55    1
    60    32    56    1
@<TRIPOS>SUBSTRUCTURE
     1 ZINC000547864253        1 TEMP              0 ****  ****    0 ROOT


##########                                Name:    ZINC001011267435
##########                DOCK_Rotatable_Bonds:                   7
##########                         Heavy_Atoms:                  24
##########                    Molecular_Weight:             331.458
##########                DOCK_Rotatable_Bonds:                   7
##########                       Formal_Charge:        -4.47035e-08
##########                     HBond_Acceptors:                   5
##########                        HBond_Donors:                   0
##########                         Heavy_Atoms:                  24
##########                          Grid_Score:          -28.802650
##########                     Grid_vdw_energy:          -28.159790
##########                      Grid_es_energy:           -0.642860
##########           Internal_energy_repulsive:           36.820187

@<TRIPOS>MOLECULE
ZINC001011267435
 53 54 1 0 0
SMALL
USER_CHARGES


@<TRIPOS>ATOM
      1 C1         -3.7993    4.8317   53.3001 C.3     1  ZINC001011267435   -0.1500
      2 C2         -2.9135    3.7894   52.6148 C.3     1  ZINC001011267435   -0.1200
      3 C3         -2.0352    4.4760   51.5670 C.3     1  ZINC001011267435   -0.0700
      4 C4         -1.1618    3.4494   50.8929 C.ar    1  ZINC001011267435    0.1300
      5 C5         -1.5883    2.8562   49.7208 C.ar    1  ZINC001011267435   -0.1200
      6 C6         -0.7687    1.9050   49.1049 C.ar    1  ZINC001011267435   -0.0800
      7 C7         -1.1839    1.2427   47.8465 C.2     1  ZINC001011267435    0.5600
      8 O8         -1.8682    0.2393   47.8851 O.2     1  ZINC001011267435   -0.5200
      9 N9         -0.8025    1.7531   46.6588 N.am    1  ZINC001011267435   -0.6100
     10 C10         0.0301    2.9624   46.5971 C.3     1  ZINC001011267435    0.0700
     11 C11         1.2865    2.6510   45.7743 C.3     1  ZINC001011267435    0.1000
     12 N12         0.8774    2.0078   44.5178 N.am    1  ZINC001011267435   -0.6200
     13 C13         1.2594    2.5176   43.3301 C.2     1  ZINC001011267435    0.5300
     14 O14         0.9154    1.9780   42.2998 O.2     1  ZINC001011267435   -0.5300
     15 C15         2.1137    3.7580   43.2822 C.3     1  ZINC001011267435   -0.1100
     16 H16         2.8575    3.7179   44.0779 H       1  ZINC001011267435    0.0900
     17 C17         1.2307    4.9932   43.4715 C.3     1  ZINC001011267435   -0.1500
     18 C18         2.8200    3.8389   41.9274 C.3     1  ZINC001011267435   -0.0800
     19 C19         3.6874    5.0983   41.8787 C.3     1  ZINC001011267435   -0.1500
     20 C20         3.7031    2.6039   41.7382 C.3     1  ZINC001011267435   -0.1500
     21 C21         0.0447    0.7983   44.5795 C.3     1  ZINC001011267435    0.0900
     22 C22        -1.2069    1.1066   45.4025 C.3     1  ZINC001011267435    0.1000
     23 C23         0.4536    1.5971   49.7096 C.ar    1  ZINC001011267435   -0.1600
     24 C24         0.8014    2.2392   50.8825 C.ar    1  ZINC001011267435    0.1100
     25 N25         0.0013    3.1337   51.4271 N.ar    1  ZINC001011267435   -0.4600
     26 H26        -3.1718    5.5793   53.7853 H       1  ZINC001011267435    0.0600
     27 H27        -4.4323    5.3159   52.5564 H       1  ZINC001011267435    0.0500
     28 H28        -4.4250    4.3425   54.0466 H       1  ZINC001011267435    0.0600
     29 H29        -2.2806    3.3051   53.3585 H       1  ZINC001011267435    0.0700
     30 H30        -3.5410    3.0417   52.1295 H       1  ZINC001011267435    0.0600
     31 H31        -2.6682    4.9595   50.8228 H       1  ZINC001011267435    0.0800
     32 H32        -1.4084    5.2241   52.0521 H       1  ZINC001011267435    0.0900
     33 H33        -2.5406    3.1226   49.2865 H       1  ZINC001011267435    0.1400
     34 H34        -0.5289    3.7677   46.1204 H       1  ZINC001011267435    0.0800
     35 H35         0.3177    3.2604   47.6053 H       1  ZINC001011267435    0.1100
     36 H36         1.8190    3.5764   45.5550 H       1  ZINC001011267435    0.1100
     37 H37         1.9340    1.9776   46.3360 H       1  ZINC001011267435    0.0700
     38 H38         1.8345    5.8929   43.3543 H       1  ZINC001011267435    0.0800
     39 H39         0.4358    4.9893   42.7256 H       1  ZINC001011267435    0.0600
     40 H40         0.7924    4.9770   44.4693 H       1  ZINC001011267435    0.0600
     41 H41         2.0762    3.8790   41.1317 H       1  ZINC001011267435    0.0800
     42 H42         4.1906    5.1559   40.9136 H       1  ZINC001011267435    0.0600
     43 H43         3.0582    5.9782   42.0136 H       1  ZINC001011267435    0.0600
     44 H44         4.4312    5.0582   42.6745 H       1  ZINC001011267435    0.0600
     45 H45         3.0852    1.7066   41.7729 H       1  ZINC001011267435    0.0600
     46 H46         4.2064    2.6615   40.7731 H       1  ZINC001011267435    0.0600
     47 H47         4.4470    2.5638   42.5340 H       1  ZINC001011267435    0.0500
     48 H48        -0.2430    0.5004   43.5713 H       1  ZINC001011267435    0.1000
     49 H49         0.6038   -0.0068   45.0562 H       1  ZINC001011267435    0.0800
     50 H50        -1.7385    0.1804   45.6208 H       1  ZINC001011267435    0.1100
     51 H51        -1.8559    1.7804   44.8429 H       1  ZINC001011267435    0.0800
     52 H52         1.1158    0.8679   49.2666 H       1  ZINC001011267435    0.1500
     53 H53         1.7434    2.0077   51.3574 H       1  ZINC001011267435    0.1700
@<TRIPOS>BOND
     1     1     2    1
     2     1    26    1
     3     1    27    1
     4     1    28    1
     5     2     3    1
     6     2    29    1
     7     2    30    1
     8     3     4    1
     9     3    31    1
    10     3    32    1
    11     4    25   ar
    12     4     5   ar
    13     5     6   ar
    14     5    33    1
    15     6     7    1
    16     6    23   ar
    17     7     8    2
    18     7     9   am
    19     9    22    1
    20     9    10    1
    21    10    11    1
    22    10    34    1
    23    10    35    1
    24    11    12    1
    25    11    36    1
    26    11    37    1
    27    12    13   am
    28    12    21    1
    29    13    14    2
    30    13    15    1
    31    15    16    1
    32    15    17    1
    33    15    18    1
    34    17    38    1
    35    17    39    1
    36    17    40    1
    37    18    19    1
    38    18    20    1
    39    18    41    1
    40    19    42    1
    41    19    43    1
    42    19    44    1
    43    20    45    1
    44    20    46    1
    45    20    47    1
    46    21    22    1
    47    21    48    1
    48    21    49    1
    49    22    50    1
    50    22    51    1
    51    23    24   ar
    52    23    52    1
    53    24    25   ar
    54    24    53    1
@<TRIPOS>SUBSTRUCTURE
     1 ZINC001011267435        1 TEMP              0 ****  ****    0 ROOT


##########                                Name:    ZINC000541568816
##########                DOCK_Rotatable_Bonds:                   8
##########                         Heavy_Atoms:                  25
##########                    Molecular_Weight:             411.339
##########                DOCK_Rotatable_Bonds:                   8
##########                       Formal_Charge:          -0.0100007
##########                     HBond_Acceptors:                   5
##########                        HBond_Donors:                   1
##########                         Heavy_Atoms:                  25
##########                          Grid_Score:          -28.780773
##########                     Grid_vdw_energy:          -27.231773
##########                      Grid_es_energy:           -1.549000
##########           Internal_energy_repulsive:           17.249584

@<TRIPOS>MOLECULE
ZINC000541568816
 52 54 1 0 0
SMALL
USER_CHARGES


@<TRIPOS>ATOM
      1 C1        -11.6390    1.3042   52.4005 C.3     1  ZINC000541568816   -0.1500
      2 C2        -10.8085    0.4129   53.3262 C.3     1  ZINC000541568816    0.0600
      3 O3        -10.0145    1.2305   54.1883 O.3     1  ZINC000541568816   -0.3700
      4 C4         -9.9053    0.7324   55.5232 C.3     1  ZINC000541568816    0.0700
      5 H5         -9.7151   -0.3402   55.5609 H       1  ZINC000541568816    0.0900
      6 C6        -11.0472    1.1896   56.4480 C.3     1  ZINC000541568816   -0.1700
      7 C7         -9.9833    1.3756   57.5440 C.3     1  ZINC000541568816    0.1500
      8 H8        -10.1291    2.2717   58.1472 H       1  ZINC000541568816    0.1100
      9 N9         -9.7569    0.1753   58.3528 N.am    1  ZINC000541568816   -0.7200
     10 C10       -10.5901   -0.1183   59.3708 C.2     1  ZINC000541568816    0.7100
     11 O11       -11.5303    0.6122   59.6168 O.2     1  ZINC000541568816   -0.5800
     12 N12       -10.3809   -1.2217   60.1159 N.am    1  ZINC000541568816   -0.6300
     13 C13        -9.2490   -2.1029   59.8183 C.3     1  ZINC000541568816    0.1000
     14 C14        -9.6534   -3.1041   58.7343 C.3     1  ZINC000541568816   -0.1800
     15 C15       -11.2855   -1.5399   61.2235 C.3     1  ZINC000541568816    0.1700
     16 C16       -10.8550   -0.7868   62.4558 C.ar    1  ZINC000541568816   -0.0700
     17 C17        -9.5117   -0.6614   62.7551 C.ar    1  ZINC000541568816   -0.1000
     18 C18        -9.1166    0.0295   63.8856 C.ar    1  ZINC000541568816   -0.1000
     19 C19       -10.0649    0.5956   64.7168 C.ar    1  ZINC000541568816   -0.1200
     20 C20       -11.4089    0.4707   64.4183 C.ar    1  ZINC000541568816   -0.0900
     21 C21       -11.8043   -0.2160   63.2846 C.ar    1  ZINC000541568816   -0.0900
     22 Br22      -13.6426   -0.3871   62.8757 Br      1  ZINC000541568816   -0.0500
     23 C23        -8.9653    1.5545   56.4106 C.3     1  ZINC000541568816    0.0800
     24 C24        -8.7642    3.0100   55.9541 C.3     1  ZINC000541568816   -0.1200
     25 C25        -7.3364    3.3218   56.4832 C.3     1  ZINC000541568816   -0.1600
     26 C26        -6.6561    1.9371   56.3334 C.3     1  ZINC000541568816    0.0500
     27 O27        -7.6819    0.9782   56.6450 O.3     1  ZINC000541568816   -0.3600
     28 H28       -12.2906    1.9416   52.9982 H       1  ZINC000541568816    0.0600
     29 H29       -10.9736    1.9253   51.8010 H       1  ZINC000541568816    0.0600
     30 H30       -12.2446    0.6806   51.7429 H       1  ZINC000541568816    0.0700
     31 H31       -11.4740   -0.2082   53.9257 H       1  ZINC000541568816    0.0500
     32 H32       -10.1570   -0.2245   52.7284 H       1  ZINC000541568816    0.0500
     33 H33       -11.5171    2.1214   56.1332 H       1  ZINC000541568816    0.1000
     34 H34       -11.7698    0.4043   56.6700 H       1  ZINC000541568816    0.0800
     35 H35        -9.0075   -0.4081   58.1558 H       1  ZINC000541568816    0.4000
     36 H36        -8.4072   -1.5067   59.4665 H       1  ZINC000541568816    0.0900
     37 H37        -8.9608   -2.6415   60.7211 H       1  ZINC000541568816    0.0700
     38 H38        -9.9417   -2.5655   57.8316 H       1  ZINC000541568816    0.0600
     39 H39        -8.8113   -3.7598   58.5129 H       1  ZINC000541568816    0.0700
     40 H40       -10.4954   -3.7002   59.0862 H       1  ZINC000541568816    0.0600
     41 H41       -12.3019   -1.2501   60.9572 H       1  ZINC000541568816    0.1000
     42 H42       -11.2534   -2.6110   61.4226 H       1  ZINC000541568816    0.1100
     43 H43        -8.7703   -1.1035   62.1059 H       1  ZINC000541568816    0.1300
     44 H44        -8.0667    0.1267   64.1197 H       1  ZINC000541568816    0.1300
     45 H45        -9.7558    1.1352   65.5998 H       1  ZINC000541568816    0.1300
     46 H46       -12.1498    0.9127   65.0679 H       1  ZINC000541568816    0.1300
     47 H47        -8.8017    3.0856   54.8674 H       1  ZINC000541568816    0.1000
     48 H48        -9.5019    3.6675   56.4142 H       1  ZINC000541568816    0.0900
     49 H49        -6.8430    4.0708   55.8638 H       1  ZINC000541568816    0.0900
     50 H50        -7.3641    3.6346   57.5270 H       1  ZINC000541568816    0.0800
     51 H51        -6.3053    1.7968   55.3109 H       1  ZINC000541568816    0.0600
     52 H52        -5.8268    1.8452   57.0347 H       1  ZINC000541568816    0.0900
@<TRIPOS>BOND
     1     1     2    1
     2     1    28    1
     3     1    29    1
     4     1    30    1
     5     2     3    1
     6     2    31    1
     7     2    32    1
     8     3     4    1
     9     4     5    1
    10     4    23    1
    11     4     6    1
    12     6     7    1
    13     6    33    1
    14     6    34    1
    15     7     8    1
    16     7     9    1
    17     7    23    1
    18     9    10   am
    19     9    35    1
    20    10    11    2
    21    10    12   am
    22    12    13    1
    23    12    15    1
    24    13    14    1
    25    13    36    1
    26    13    37    1
    27    14    38    1
    28    14    39    1
    29    14    40    1
    30    15    16    1
    31    15    41    1
    32    15    42    1
    33    16    21   ar
    34    16    17   ar
    35    17    18   ar
    36    17    43    1
    37    18    19   ar
    38    18    44    1
    39    19    20   ar
    40    19    45    1
    41    20    21   ar
    42    20    46    1
    43    21    22    1
    44    23    27    1
    45    23    24    1
    46    24    25    1
    47    24    47    1
    48    24    48    1
    49    25    26    1
    50    25    49    1
    51    25    50    1
    52    26    27    1
    53    26    51    1
    54    26    52    1
@<TRIPOS>SUBSTRUCTURE
     1 ZINC000541568816        1 TEMP              0 ****  ****    0 ROOT


##########                                Name:    ZINC000518242403
##########                DOCK_Rotatable_Bonds:                   6
##########                         Heavy_Atoms:                  27
##########                    Molecular_Weight:             370.405
##########                DOCK_Rotatable_Bonds:                   6
##########                       Formal_Charge:          -0.0200004
##########                     HBond_Acceptors:                   7
##########                        HBond_Donors:                   1
##########                         Heavy_Atoms:                  27
##########                          Grid_Score:          -28.773594
##########                     Grid_vdw_energy:          -28.102879
##########                      Grid_es_energy:           -0.670715
##########           Internal_energy_repulsive:           12.803325

@<TRIPOS>MOLECULE
ZINC000518242403
 49 52 1 0 0
SMALL
USER_CHARGES


@<TRIPOS>ATOM
      1 C1        -14.8540   -1.6148   58.6286 C.3     1  ZINC000518242403   -0.1800
      2 C2        -14.3458   -2.9720   59.1191 C.3     1  ZINC000518242403    0.1000
      3 N3        -13.2926   -3.4525   58.2214 N.am    1  ZINC000518242403   -0.6200
      4 C4        -11.8841   -3.2546   58.5724 C.3     1  ZINC000518242403    0.1500
      5 C5        -11.3859   -1.9431   57.9621 C.3     1  ZINC000518242403    0.0300
      6 H6        -11.9294   -1.1049   58.3982 H       1  ZINC000518242403    0.0900
      7 C7         -9.8839   -1.7833   58.2342 C.3     1  ZINC000518242403    0.0300
      8 O8         -9.4487   -0.5559   57.6393 O.3     1  ZINC000518242403   -0.3000
      9 C9         -9.8642   -0.3122   56.3664 C.ar    1  ZINC000518242403    0.0500
     10 C10        -9.2091    0.6464   55.6083 C.ar    1  ZINC000518242403   -0.1100
     11 C11        -9.6217    0.9073   54.3149 C.ar    1  ZINC000518242403   -0.1200
     12 C12       -10.6877    0.2136   53.7738 C.ar    1  ZINC000518242403   -0.1200
     13 C13       -11.3441   -0.7445   54.5237 C.ar    1  ZINC000518242403   -0.1100
     14 C14       -10.9347   -1.0119   55.8213 C.ar    1  ZINC000518242403    0.0500
     15 O15       -11.5862   -1.9633   56.5446 O.3     1  ZINC000518242403   -0.3000
     16 C16       -13.6194   -4.0769   57.0725 C.2     1  ZINC000518242403    0.7100
     17 O17       -12.7453   -4.4771   56.3281 O.2     1  ZINC000518242403   -0.5700
     18 N18       -14.9151   -4.2576   56.7488 N.am    1  ZINC000518242403   -0.6800
     19 C19       -15.2550   -4.9067   55.5542 C.ar    1  ZINC000518242403    0.1700
     20 C20       -15.5049   -4.1650   54.4081 C.ar    1  ZINC000518242403   -0.1000
     21 C21       -15.8404   -4.8070   53.2276 C.ar    1  ZINC000518242403    0.0500
     22 C22       -15.9262   -6.1968   53.1935 C.ar    1  ZINC000518242403    0.0200
     23 C23       -15.6766   -6.9334   54.3400 C.ar    1  ZINC000518242403   -0.0800
     24 C24       -15.3362   -6.2922   55.5158 C.ar    1  ZINC000518242403   -0.1000
     25 C25       -15.0655   -7.0968   56.7609 C.3     1  ZINC000518242403   -0.1100
     26 O26       -16.2686   -6.5814   51.9283 O.3     1  ZINC000518242403   -0.3100
     27 C27       -16.7897   -5.3981   51.2947 C.3     1  ZINC000518242403    0.2100
     28 O28       -16.1285   -4.3213   51.9849 O.3     1  ZINC000518242403   -0.3100
     29 H29       -14.0307   -0.9004   58.6191 H       1  ZINC000518242403    0.0600
     30 H30       -15.2556   -1.7198   57.6208 H       1  ZINC000518242403    0.0600
     31 H31       -15.6376   -1.2572   59.2966 H       1  ZINC000518242403    0.0700
     32 H32       -13.9441   -2.8669   60.1270 H       1  ZINC000518242403    0.1000
     33 H33       -15.1690   -3.6864   59.1288 H       1  ZINC000518242403    0.0700
     34 H34       -11.7823   -3.2125   59.6568 H       1  ZINC000518242403    0.1100
     35 H35       -11.2928   -4.0838   58.1838 H       1  ZINC000518242403    0.0900
     36 H36        -9.7061   -1.7542   59.3092 H       1  ZINC000518242403    0.1300
     37 H37        -9.3397   -2.6187   57.7935 H       1  ZINC000518242403    0.0800
     38 H38        -8.3760    1.1899   56.0288 H       1  ZINC000518242403    0.1300
     39 H39        -9.1100    1.6542   53.7262 H       1  ZINC000518242403    0.1300
     40 H40       -11.0085    0.4206   52.7637 H       1  ZINC000518242403    0.1300
     41 H41       -12.1768   -1.2851   54.0986 H       1  ZINC000518242403    0.1300
     42 H42       -15.6125   -3.9383   57.3426 H       1  ZINC000518242403    0.4100
     43 H43       -15.4382   -3.0874   54.4368 H       1  ZINC000518242403    0.1500
     44 H44       -15.7432   -8.0110   54.3136 H       1  ZINC000518242403    0.1400
     45 H45       -14.0065   -7.3510   56.8062 H       1  ZINC000518242403    0.0800
     46 H46       -15.3361   -6.5100   57.6387 H       1  ZINC000518242403    0.0700
     47 H47       -15.6580   -8.0114   56.7385 H       1  ZINC000518242403    0.0800
     48 H48       -16.5351   -5.3873   50.2349 H       1  ZINC000518242403    0.1300
     49 H49       -17.8693   -5.3346   51.4309 H       1  ZINC000518242403    0.0900
@<TRIPOS>BOND
     1     1     2    1
     2     1    29    1
     3     1    30    1
     4     1    31    1
     5     2     3    1
     6     2    32    1
     7     2    33    1
     8     3     4    1
     9     3    16   am
    10     4     5    1
    11     4    34    1
    12     4    35    1
    13     5     6    1
    14     5    15    1
    15     5     7    1
    16     7     8    1
    17     7    36    1
    18     7    37    1
    19     8     9    1
    20     9    14   ar
    21     9    10   ar
    22    10    11   ar
    23    10    38    1
    24    11    12   ar
    25    11    39    1
    26    12    13   ar
    27    12    40    1
    28    13    14   ar
    29    13    41    1
    30    14    15    1
    31    16    17    2
    32    16    18   am
    33    18    19    1
    34    18    42    1
    35    19    24   ar
    36    19    20   ar
    37    20    21   ar
    38    20    43    1
    39    21    28    1
    40    21    22   ar
    41    22    23   ar
    42    22    26    1
    43    23    24   ar
    44    23    44    1
    45    24    25    1
    46    25    45    1
    47    25    46    1
    48    25    47    1
    49    26    27    1
    50    27    28    1
    51    27    48    1
    52    27    49    1
@<TRIPOS>SUBSTRUCTURE
     1 ZINC000518242403        1 TEMP              0 ****  ****    0 ROOT


##########                                Name:    ZINC000675319328
##########                DOCK_Rotatable_Bonds:                   7
##########                         Heavy_Atoms:                  26
##########                    Molecular_Weight:             363.475
##########                DOCK_Rotatable_Bonds:                   7
##########                       Formal_Charge:          -0.0200007
##########                     HBond_Acceptors:                   6
##########                        HBond_Donors:                   1
##########                         Heavy_Atoms:                  26
##########                          Grid_Score:          -28.739336
##########                     Grid_vdw_energy:          -27.365488
##########                      Grid_es_energy:           -1.373847
##########           Internal_energy_repulsive:           19.647039

@<TRIPOS>MOLECULE
ZINC000675319328
 56 58 1 0 0
SMALL
USER_CHARGES


@<TRIPOS>ATOM
      1 C1         -2.7607    5.9738   50.2947 C.3     1  ZINC000675319328   -0.1600
      2 C2         -2.7424    4.5412   50.8311 C.3     1  ZINC000675319328    0.1600
      3 H3         -3.7354    4.1029   50.7309 H       1  ZINC000675319328    0.0900
      4 C4         -2.3372    4.5540   52.3064 C.3     1  ZINC000675319328   -0.1200
      5 C5         -3.3441    5.3846   53.1047 C.3     1  ZINC000675319328   -0.1200
      6 H6         -3.4182    6.3943   52.7008 H       1  ZINC000675319328    0.0800
      7 C7         -4.7354    4.6948   53.1268 C.3     1  ZINC000675319328   -0.1500
      8 C8         -5.3069    5.2284   54.4645 C.3     1  ZINC000675319328    0.0500
      9 O9         -4.1812    5.2920   55.3546 O.3     1  ZINC000675319328   -0.3900
     10 C10        -2.9655    5.4177   54.6009 C.3     1  ZINC000675319328    0.0500
     11 N11        -1.7783    3.7458   50.0668 N.am    1  ZINC000675319328   -0.7400
     12 C12        -1.9775    2.4233   49.9001 C.2     1  ZINC000675319328    0.7000
     13 O13        -2.9574    1.8904   50.3839 O.2     1  ZINC000675319328   -0.5900
     14 N14        -1.0905    1.6916   49.1970 N.am    1  ZINC000675319328   -0.6200
     15 C15        -1.3360    0.2454   49.0316 C.3     1  ZINC000675319328    0.1300
     16 C16        -1.0179   -0.2151   47.5991 C.3     1  ZINC000675319328   -0.1300
     17 C17        -1.4950    0.8277   46.6125 C.3     1  ZINC000675319328    0.0700
     18 N18        -0.3996    1.7528   46.3270 N.3     1  ZINC000675319328   -0.5500
     19 C19        -0.4368    2.1969   44.9273 C.3     1  ZINC000675319328    0.1000
     20 C20         0.9709    2.3645   44.4159 C.ar    1  ZINC000675319328   -0.0900
     21 C21         1.8680    1.3166   44.5066 C.ar    1  ZINC000675319328   -0.0900
     22 C22         3.1591    1.4692   44.0379 C.ar    1  ZINC000675319328   -0.1500
     23 C23         3.5538    2.6719   43.4768 C.ar    1  ZINC000675319328    0.1000
     24 F24         4.8156    2.8219   43.0179 F       1  ZINC000675319328   -0.1400
     25 C25         2.6542    3.7205   43.3860 C.ar    1  ZINC000675319328   -0.1500
     26 C26         1.3622    3.5640   43.8510 C.ar    1  ZINC000675319328   -0.0700
     27 C27        -0.2629    2.8537   47.2047 C.3     1  ZINC000675319328    0.0500
     28 C28         0.0644    2.3554   48.6274 C.3     1  ZINC000675319328    0.1100
     29 H29        -3.0494    5.9647   49.2436 H       1  ZINC000675319328    0.0600
     30 H30        -3.4780    6.5657   50.8633 H       1  ZINC000675319328    0.0700
     31 H31        -1.7677    6.4121   50.3949 H       1  ZINC000675319328    0.0500
     32 H32        -2.3243    3.5332   52.6885 H       1  ZINC000675319328    0.0700
     33 H33        -1.3442    4.9921   52.4066 H       1  ZINC000675319328    0.0900
     34 H34        -5.3463    5.0153   52.2830 H       1  ZINC000675319328    0.0800
     35 H35        -4.6355    3.6096   53.1474 H       1  ZINC000675319328    0.0800
     36 H36        -5.7346    6.2210   54.3241 H       1  ZINC000675319328    0.0600
     37 H37        -6.0594    4.5430   54.8547 H       1  ZINC000675319328    0.0900
     38 H38        -2.3007    4.5847   54.8300 H       1  ZINC000675319328    0.0700
     39 H39        -2.4757    6.3608   54.8436 H       1  ZINC000675319328    0.0700
     40 H40        -0.9966    4.1709   49.6808 H       1  ZINC000675319328    0.3900
     41 H41        -0.7075   -0.3055   49.7314 H       1  ZINC000675319328    0.0600
     42 H42        -2.3826    0.0337   49.2505 H       1  ZINC000675319328    0.0900
     43 H43         0.0583   -0.3504   47.4920 H       1  ZINC000675319328    0.0800
     44 H44        -1.5234   -1.1601   47.4011 H       1  ZINC000675319328    0.0800
     45 H45        -1.8096    0.3396   45.6900 H       1  ZINC000675319328    0.0700
     46 H46        -2.3339    1.3769   47.0399 H       1  ZINC000675319328    0.0400
     47 H47        -0.9565    1.4528   44.3237 H       1  ZINC000675319328    0.0900
     48 H48        -0.9628    3.1493   44.8621 H       1  ZINC000675319328    0.0400
     49 H49         1.5599    0.3786   44.9442 H       1  ZINC000675319328    0.1300
     50 H50         3.8601    0.6507   44.1096 H       1  ZINC000675319328    0.1400
     51 H51         2.9611    4.6592   42.9489 H       1  ZINC000675319328    0.1400
     52 H52         0.6603    4.3817   43.7800 H       1  ZINC000675319328    0.1300
     53 H53         0.5413    3.4996   46.8523 H       1  ZINC000675319328    0.0900
     54 H54        -1.1953    3.4178   47.2253 H       1  ZINC000675319328    0.0300
     55 H55         0.3384    3.2037   49.2547 H       1  ZINC000675319328    0.0700
     56 H56         0.8973    1.6538   48.5834 H       1  ZINC000675319328    0.0900
@<TRIPOS>BOND
     1     1     2    1
     2     1    29    1
     3     1    30    1
     4     1    31    1
     5     2     3    1
     6     2     4    1
     7     2    11    1
     8     4     5    1
     9     4    32    1
    10     4    33    1
    11     5     6    1
    12     5    10    1
    13     5     7    1
    14     7     8    1
    15     7    34    1
    16     7    35    1
    17     8     9    1
    18     8    36    1
    19     8    37    1
    20     9    10    1
    21    10    38    1
    22    10    39    1
    23    11    12   am
    24    11    40    1
    25    12    13    2
    26    12    14   am
    27    14    28    1
    28    14    15    1
    29    15    16    1
    30    15    41    1
    31    15    42    1
    32    16    17    1
    33    16    43    1
    34    16    44    1
    35    17    18    1
    36    17    45    1
    37    17    46    1
    38    18    19    1
    39    18    27    1
    40    19    20    1
    41    19    47    1
    42    19    48    1
    43    20    26   ar
    44    20    21   ar
    45    21    22   ar
    46    21    49    1
    47    22    23   ar
    48    22    50    1
    49    23    24    1
    50    23    25   ar
    51    25    26   ar
    52    25    51    1
    53    26    52    1
    54    27    28    1
    55    27    53    1
    56    27    54    1
    57    28    55    1
    58    28    56    1
@<TRIPOS>SUBSTRUCTURE
     1 ZINC000675319328        1 TEMP              0 ****  ****    0 ROOT


##########                                Name:    ZINC000986832075
##########                DOCK_Rotatable_Bonds:                   7
##########                         Heavy_Atoms:                  25
##########                    Molecular_Weight:             347.433
##########                DOCK_Rotatable_Bonds:                   7
##########                       Formal_Charge:          -0.0200006
##########                     HBond_Acceptors:                   6
##########                        HBond_Donors:                   1
##########                         Heavy_Atoms:                  25
##########                          Grid_Score:          -28.738026
##########                     Grid_vdw_energy:          -25.574797
##########                      Grid_es_energy:           -3.163229
##########           Internal_energy_repulsive:           28.651196

@<TRIPOS>MOLECULE
ZINC000986832075
 51 53 1 0 0
SMALL
USER_CHARGES


@<TRIPOS>ATOM
      1 C1         -1.8944    3.1092   50.4616 C.3     1  ZINC000986832075   -0.1700
      2 C2         -0.5555    3.2709   49.7391 C.3     1  ZINC000986832075    0.1500
      3 H3         -0.2154    4.3024   49.8309 H       1  ZINC000986832075    0.0900
      4 N4          0.4353    2.3748   50.3405 N.am    1  ZINC000986832075   -0.7200
      5 C5          1.3617    2.8657   51.1872 C.2     1  ZINC000986832075    0.5600
      6 O6          1.3745    4.0515   51.4531 O.2     1  ZINC000986832075   -0.5100
      7 C7          2.3638    1.9607   51.7933 C.ar    1  ZINC000986832075   -0.1300
      8 C8          2.3212    0.5821   51.5612 C.ar    1  ZINC000986832075   -0.1100
      9 C9          3.2759   -0.2258   52.1466 C.ar    1  ZINC000986832075    0.0900
     10 N10         4.2178    0.2843   52.9152 N.ar    1  ZINC000986832075   -0.4400
     11 C11         4.2968    1.5761   53.1617 C.ar    1  ZINC000986832075    0.0700
     12 C12         3.3850    2.4613   52.6112 C.ar    1  ZINC000986832075    0.1100
     13 F13         3.4721    3.7847   52.8682 F       1  ZINC000986832075   -0.1000
     14 C14        -0.7285    2.9207   48.2598 C.3     1  ZINC000986832075   -0.1000
     15 C15         0.3758    3.5960   47.4435 C.3     1  ZINC000986832075   -0.1300
     16 C16         0.1793    3.2715   45.9592 C.3     1  ZINC000986832075    0.1100
     17 N17         0.1165    1.8124   45.7986 N.am    1  ZINC000986832075   -0.6100
     18 C18         0.9301    1.1818   44.9286 C.2     1  ZINC000986832075    0.5200
     19 O19         0.8686   -0.0231   44.8051 O.2     1  ZINC000986832075   -0.5300
     20 C20         1.9160    1.9739   44.1092 C.3     1  ZINC000986832075   -0.0800
     21 H21         2.3928    2.7242   44.7399 H       1  ZINC000986832075    0.0900
     22 C22         1.1830    2.6662   42.9583 C.3     1  ZINC000986832075   -0.1400
     23 C23         2.9810    1.0325   43.5426 C.3     1  ZINC000986832075   -0.1400
     24 C24         4.4443    1.4584   43.6779 C.3     1  ZINC000986832075   -0.1800
     25 C25         3.8961    0.3194   44.5400 C.3     1  ZINC000986832075   -0.1700
     26 C26        -0.8497    1.0538   46.6047 C.3     1  ZINC000986832075    0.1000
     27 C27        -0.6415    1.4032   48.0816 C.3     1  ZINC000986832075   -0.1300
     28 H28        -1.7711    3.3588   51.5155 H       1  ZINC000986832075    0.0600
     29 H29        -2.6316    3.7759   50.0141 H       1  ZINC000986832075    0.0700
     30 H30        -2.2346    2.0777   50.3698 H       1  ZINC000986832075    0.0600
     31 H31         0.4244    1.4281   50.1293 H       1  ZINC000986832075    0.4000
     32 H32         1.5528    0.1558   50.9333 H       1  ZINC000986832075    0.1500
     33 H33         3.2504   -1.2913   51.9724 H       1  ZINC000986832075    0.1700
     34 H34         5.0854    1.9500   53.7980 H       1  ZINC000986832075    0.1800
     35 H35        -1.7011    3.2717   47.9149 H       1  ZINC000986832075    0.0800
     36 H36         0.3279    4.6752   47.5894 H       1  ZINC000986832075    0.0700
     37 H37         1.3477    3.2270   47.7710 H       1  ZINC000986832075    0.0800
     38 H38        -0.7507    3.7181   45.6076 H       1  ZINC000986832075    0.0700
     39 H39         1.0170    3.6667   45.3847 H       1  ZINC000986832075    0.0900
     40 H40         0.6335    1.9241   42.3790 H       1  ZINC000986832075    0.0600
     41 H41         0.4863    3.4012   43.3612 H       1  ZINC000986832075    0.0600
     42 H42         1.9071    3.1662   42.3149 H       1  ZINC000986832075    0.0700
     43 H43         2.6961    0.4879   42.6425 H       1  ZINC000986832075    0.1100
     44 H44         5.1224    1.1940   42.8665 H       1  ZINC000986832075    0.1000
     45 H45         4.6484    2.4091   44.1705 H       1  ZINC000986832075    0.0900
     46 H46         3.7396    0.5208   45.5997 H       1  ZINC000986832075    0.0900
     47 H47         4.2137   -0.6943   44.2958 H       1  ZINC000986832075    0.1000
     48 H48        -1.8635    1.3196   46.3057 H       1  ZINC000986832075    0.0700
     49 H49        -0.6908   -0.0143   46.4560 H       1  ZINC000986832075    0.0900
     50 H50         0.3400    1.0549   48.4031 H       1  ZINC000986832075    0.0800
     51 H51        -1.4136    0.9216   48.6817 H       1  ZINC000986832075    0.0800
@<TRIPOS>BOND
     1     1     2    1
     2     1    28    1
     3     1    29    1
     4     1    30    1
     5     2     3    1
     6     2     4    1
     7     2    14    1
     8     4     5   am
     9     4    31    1
    10     5     6    2
    11     5     7    1
    12     7    12   ar
    13     7     8   ar
    14     8     9   ar
    15     8    32    1
    16     9    10   ar
    17     9    33    1
    18    10    11   ar
    19    11    12   ar
    20    11    34    1
    21    12    13    1
    22    14    27    1
    23    14    15    1
    24    14    35    1
    25    15    16    1
    26    15    36    1
    27    15    37    1
    28    16    17    1
    29    16    38    1
    30    16    39    1
    31    17    18   am
    32    17    26    1
    33    18    19    2
    34    18    20    1
    35    20    21    1
    36    20    22    1
    37    20    23    1
    38    22    40    1
    39    22    41    1
    40    22    42    1
    41    23    25    1
    42    23    24    1
    43    23    43    1
    44    24    25    1
    45    24    44    1
    46    24    45    1
    47    25    46    1
    48    25    47    1
    49    26    27    1
    50    26    48    1
    51    26    49    1
    52    27    50    1
    53    27    51    1
@<TRIPOS>SUBSTRUCTURE
     1 ZINC000986832075        1 TEMP              0 ****  ****    0 ROOT


##########                                Name:    ZINC000508571532
##########                DOCK_Rotatable_Bonds:                   9
##########                         Heavy_Atoms:                  30
##########                    Molecular_Weight:             422.407
##########                DOCK_Rotatable_Bonds:                   9
##########                       Formal_Charge:           0.0100001
##########                     HBond_Acceptors:                  10
##########                        HBond_Donors:                   0
##########                         Heavy_Atoms:                  30
##########                          Grid_Score:          -28.732487
##########                     Grid_vdw_energy:          -27.191233
##########                      Grid_es_energy:           -1.541255
##########           Internal_energy_repulsive:           19.915564

@<TRIPOS>MOLECULE
ZINC000508571532
 51 53 1 0 0
SMALL
USER_CHARGES


@<TRIPOS>ATOM
      1 C1          0.9553    4.8562   57.4397 C.3     1  ZINC000508571532    0.0300
      2 O2         -0.2387    5.5887   57.1575 O.3     1  ZINC000508571532   -0.3200
      3 C3         -1.4016    4.8846   57.1242 C.ar    1  ZINC000508571532    0.0900
      4 C4         -2.5968    5.5325   56.8498 C.ar    1  ZINC000508571532   -0.1700
      5 C5         -3.7782    4.8174   56.8159 C.ar    1  ZINC000508571532   -0.1100
      6 C6         -3.7689    3.4513   57.0558 C.ar    1  ZINC000508571532    0.0900
      7 O7         -4.9319    2.7474   57.0229 O.3     1  ZINC000508571532   -0.3100
      8 C8         -6.1251    3.4791   56.7347 C.3     1  ZINC000508571532    0.1500
      9 C9         -7.3106    2.5505   56.7944 C.2     1  ZINC000508571532    0.1700
     10 N10        -7.3217    1.2901   56.4644 N.2     1  ZINC000508571532   -0.2500
     11 N11        -8.4971    0.7997   56.6372 N.2     1  ZINC000508571532   -0.3000
     12 C12        -9.3055    1.7284   57.0906 C.2     1  ZINC000508571532    0.3500
     13 N13       -10.6486    1.5746   57.3954 N.3     1  ZINC000508571532   -0.4600
     14 C14       -11.4944    1.9686   56.2609 C.3     1  ZINC000508571532    0.0300
     15 C15       -10.9387    0.1969   57.8148 C.3     1  ZINC000508571532    0.1100
     16 C16       -10.3607   -0.0432   59.1857 C.ar    1  ZINC000508571532   -0.0900
     17 C17       -10.5781    0.8715   60.1974 C.ar    1  ZINC000508571532   -0.0600
     18 C18       -10.0476    0.6520   61.4554 C.ar    1  ZINC000508571532   -0.1300
     19 C19        -9.2991   -0.4833   61.7040 C.ar    1  ZINC000508571532   -0.0700
     20 C20        -9.0790   -1.4017   60.6954 C.ar    1  ZINC000508571532   -0.1900
     21 C21        -9.6145   -1.1864   59.4341 C.ar    1  ZINC000508571532    0.1100
     22 O22        -9.3996   -2.0882   58.4404 O.3     1  ZINC000508571532   -0.3100
     23 C23       -10.3052   -3.1905   58.3577 C.3     1  ZINC000508571532    0.6000
     24 F24       -10.6968   -3.3737   57.0271 F       1  ZINC000508571532   -0.1600
     25 F25        -9.6730   -4.3492   58.8214 F       1  ZINC000508571532   -0.1300
     26 F26       -11.4323   -2.9279   59.1436 F       1  ZINC000508571532   -0.1600
     27 N27        -8.5725    2.8732   57.2107 N.pl3   1  ZINC000508571532   -0.4500
     28 C28        -9.0425    4.1793   57.6790 C.3     1  ZINC000508571532    0.0800
     29 C29        -2.5735    2.8032   57.3288 C.ar    1  ZINC000508571532   -0.1700
     30 C30        -1.3917    3.5177   57.3589 C.ar    1  ZINC000508571532   -0.1100
     31 H31         1.8077    5.5355   57.4362 H       1  ZINC000508571532    0.1000
     32 H32         0.8700    4.3854   58.4191 H       1  ZINC000508571532    0.0600
     33 H33         1.0992    4.0889   56.6789 H       1  ZINC000508571532    0.0600
     34 H34        -2.6040    6.5962   56.6630 H       1  ZINC000508571532    0.1400
     35 H35        -4.7090    5.3220   56.6030 H       1  ZINC000508571532    0.1300
     36 H36        -6.2496    4.2749   57.4690 H       1  ZINC000508571532    0.0800
     37 H37        -6.0533    3.9129   55.7374 H       1  ZINC000508571532    0.1000
     38 H38       -11.3645    1.2564   55.4461 H       1  ZINC000508571532    0.0600
     39 H39       -12.5389    1.9779   56.5723 H       1  ZINC000508571532    0.0800
     40 H40       -11.2075    2.9642   55.9223 H       1  ZINC000508571532    0.0700
     41 H41       -12.0177    0.0455   57.8438 H       1  ZINC000508571532    0.0700
     42 H42       -10.4930   -0.5003   57.1053 H       1  ZINC000508571532    0.0900
     43 H43       -11.1626    1.7593   60.0056 H       1  ZINC000508571532    0.1400
     44 H44       -10.2181    1.3689   62.2449 H       1  ZINC000508571532    0.1300
     45 H45        -8.8855   -0.6523   62.6872 H       1  ZINC000508571532    0.1400
     46 H46        -8.4939   -2.2883   60.8901 H       1  ZINC000508571532    0.1400
     47 H47        -8.8298    4.2817   58.7432 H       1  ZINC000508571532    0.0900
     48 H48        -8.5304    4.9685   57.1285 H       1  ZINC000508571532    0.0900
     49 H49       -10.1169    4.2595   57.5139 H       1  ZINC000508571532    0.1000
     50 H50        -2.5663    1.7394   57.5153 H       1  ZINC000508571532    0.1400
     51 H51        -0.4608    3.0130   57.5715 H       1  ZINC000508571532    0.1400
@<TRIPOS>BOND
     1     1     2    1
     2     1    31    1
     3     1    32    1
     4     1    33    1
     5     2     3    1
     6     3    30   ar
     7     3     4   ar
     8     4     5   ar
     9     4    34    1
    10     5     6   ar
    11     5    35    1
    12     6     7    1
    13     6    29   ar
    14     7     8    1
    15     8     9    1
    16     8    36    1
    17     8    37    1
    18     9    27    1
    19     9    10    2
    20    10    11    1
    21    11    12    2
    22    12    13    1
    23    12    27    1
    24    13    14    1
    25    13    15    1
    26    14    38    1
    27    14    39    1
    28    14    40    1
    29    15    16    1
    30    15    41    1
    31    15    42    1
    32    16    21   ar
    33    16    17   ar
    34    17    18   ar
    35    17    43    1
    36    18    19   ar
    37    18    44    1
    38    19    20   ar
    39    19    45    1
    40    20    21   ar
    41    20    46    1
    42    21    22    1
    43    22    23    1
    44    23    24    1
    45    23    25    1
    46    23    26    1
    47    27    28    1
    48    28    47    1
    49    28    48    1
    50    28    49    1
    51    29    30   ar
    52    29    50    1
    53    30    51    1
@<TRIPOS>SUBSTRUCTURE
     1 ZINC000508571532        1 TEMP              0 ****  ****    0 ROOT


##########                                Name:    ZINC001326371752
##########                DOCK_Rotatable_Bonds:                   5
##########                         Heavy_Atoms:                  25
##########                    Molecular_Weight:             360.397
##########                DOCK_Rotatable_Bonds:                   5
##########                       Formal_Charge:           0.0199999
##########                     HBond_Acceptors:                  10
##########                        HBond_Donors:                   0
##########                         Heavy_Atoms:                  25
##########                          Grid_Score:          -28.711599
##########                     Grid_vdw_energy:          -28.391907
##########                      Grid_es_energy:           -0.319692
##########           Internal_energy_repulsive:           10.894073

@<TRIPOS>MOLECULE
ZINC001326371752
 41 44 1 0 0
SMALL
USER_CHARGES


@<TRIPOS>ATOM
      1 C1        -19.6312   -3.2972   60.5784 C.3     1  ZINC001326371752    0.0300
      2 O2        -18.4902   -2.4938   60.2706 O.3     1  ZINC001326371752   -0.3800
      3 C3        -17.6600   -3.0336   59.2404 C.3     1  ZINC001326371752    0.0500
      4 C4        -16.5637   -3.8964   59.8685 C.3     1  ZINC001326371752    0.1200
      5 N5        -15.8894   -3.1369   60.9243 N.pl3   1  ZINC001326371752   -0.2800
      6 N6        -16.0718   -3.2777   62.1945 N.2     1  ZINC001326371752   -0.0800
      7 N7        -15.3239   -2.4534   62.8474 N.2     1  ZINC001326371752   -0.2500
      8 C8        -14.6201   -1.7394   61.9764 C.2     1  ZINC001326371752   -0.0400
      9 C9        -14.9678   -2.1747   60.7401 C.2     1  ZINC001326371752    0.0000
     10 C10       -14.3994   -1.6413   59.4528 C.3     1  ZINC001326371752   -0.0600
     11 C11       -13.7440   -0.2815   59.7287 C.3     1  ZINC001326371752    0.1200
     12 N12       -12.9326   -0.3744   60.9513 N.am    1  ZINC001326371752   -0.6100
     13 C13       -11.5948   -0.2176   60.9050 C.2     1  ZINC001326371752    0.6100
     14 O14       -11.0446    0.0038   59.8422 O.2     1  ZINC001326371752   -0.5100
     15 C15       -10.8015   -0.3137   62.1358 C.2     1  ZINC001326371752   -0.3400
     16 C16        -9.9500   -1.4034   62.3516 C.2     1  ZINC001326371752    0.2400
     17 N17        -9.2517   -1.4571   63.4698 N.2     1  ZINC001326371752   -0.5100
     18 C18        -9.3338   -0.5091   64.3939 C.2     1  ZINC001326371752    0.2900
     19 S19        -8.5371   -0.3530   65.9130 S.3     1  ZINC001326371752    0.2500
     20 C20        -9.3108    1.1840   66.3302 C.2     1  ZINC001326371752   -0.2100
     21 C21       -10.1033    1.4671   65.3102 C.2     1  ZINC001326371752    0.0500
     22 N22       -10.1355    0.5800   64.2615 N.am    1  ZINC001326371752   -0.4600
     23 C23       -10.8788    0.6941   63.1217 C.2     1  ZINC001326371752    0.5500
     24 O24       -11.6076    1.6573   62.9584 O.2     1  ZINC001326371752   -0.5000
     25 C25       -13.6135   -0.6461   62.2301 C.3     1  ZINC001326371752    0.2000
     26 H26       -20.2094   -2.8192   61.3691 H       1  ZINC001326371752    0.0900
     27 H27       -20.2514   -3.4036   59.6883 H       1  ZINC001326371752    0.0500
     28 H28       -19.3031   -4.2814   60.9124 H       1  ZINC001326371752    0.0500
     29 H29       -18.2641   -3.6450   58.5699 H       1  ZINC001326371752    0.0600
     30 H30       -17.2037   -2.2194   58.6774 H       1  ZINC001326371752    0.0600
     31 H31       -17.0085   -4.7954   60.2951 H       1  ZINC001326371752    0.1200
     32 H32       -15.8394   -4.1770   59.1038 H       1  ZINC001326371752    0.1200
     33 H33       -13.6525   -2.3355   59.0676 H       1  ZINC001326371752    0.0900
     34 H34       -15.1995   -1.5199   58.7226 H       1  ZINC001326371752    0.1000
     35 H35       -13.1062   -0.0075   58.8884 H       1  ZINC001326371752    0.1100
     36 H36       -14.5174    0.4751   59.8617 H       1  ZINC001326371752    0.0800
     37 H37        -9.8661   -2.1882   61.6144 H       1  ZINC001326371752    0.1900
     38 H38        -9.1665    1.7667   67.2280 H       1  ZINC001326371752    0.2200
     39 H39       -10.7042    2.3643   65.3018 H       1  ZINC001326371752    0.2000
     40 H40       -14.1269    0.2513   62.5752 H       1  ZINC001326371752    0.1000
     41 H41       -12.8874   -0.9696   62.9759 H       1  ZINC001326371752    0.1000
@<TRIPOS>BOND
     1     1     2    1
     2     1    26    1
     3     1    27    1
     4     1    28    1
     5     2     3    1
     6     3     4    1
     7     3    29    1
     8     3    30    1
     9     4     5    1
    10     4    31    1
    11     4    32    1
    12     5     9    1
    13     5     6    1
    14     6     7    2
    15     7     8    1
    16     8    25    1
    17     8     9    2
    18     9    10    1
    19    10    11    1
    20    10    33    1
    21    10    34    1
    22    11    12    1
    23    11    35    1
    24    11    36    1
    25    12    13   am
    26    12    25    1
    27    13    14    2
    28    13    15    1
    29    15    23    1
    30    15    16    2
    31    16    17    1
    32    16    37    1
    33    17    18    2
    34    18    22    1
    35    18    19    1
    36    19    20    1
    37    20    21    2
    38    20    38    1
    39    21    22    1
    40    21    39    1
    41    22    23   am
    42    23    24    2
    43    25    40    1
    44    25    41    1
@<TRIPOS>SUBSTRUCTURE
     1 ZINC001326371752        1 TEMP              0 ****  ****    0 ROOT


##########                                Name:    ZINC000132775118
##########                DOCK_Rotatable_Bonds:                   5
##########                         Heavy_Atoms:                  27
##########                    Molecular_Weight:             376.499
##########                DOCK_Rotatable_Bonds:                   5
##########                       Formal_Charge:        -4.76837e-07
##########                     HBond_Acceptors:                   7
##########                        HBond_Donors:                   1
##########                         Heavy_Atoms:                  27
##########                          Grid_Score:          -28.706827
##########                     Grid_vdw_energy:          -26.242199
##########                      Grid_es_energy:           -2.464628
##########           Internal_energy_repulsive:           71.784599

@<TRIPOS>MOLECULE
ZINC000132775118
 59 62 1 0 0
SMALL
USER_CHARGES


@<TRIPOS>ATOM
      1 O1        -11.5115   -2.6271   61.4729 O.2     1  ZINC000132775118   -0.5200
      2 C2        -10.6100   -2.1132   60.8453 C.2     1  ZINC000132775118    0.5200
      3 C3         -9.6570   -1.1688   61.5315 C.3     1  ZINC000132775118    0.0300
      4 N4        -10.1077   -0.9342   62.9098 N.3     1  ZINC000132775118   -0.5100
      5 C5         -8.9779   -0.9848   63.8494 C.3     1  ZINC000132775118    0.0300
      6 C6         -9.4049   -0.5324   65.2160 C.2     1  ZINC000132775118    0.5300
      7 O7         -8.6830   -0.7821   66.1580 O.2     1  ZINC000132775118   -0.5500
      8 N8        -10.5445    0.1340   65.4452 N.am    1  ZINC000132775118   -0.7200
      9 C9        -11.5001    0.4151   64.3827 C.3     1  ZINC000132775118    0.1500
     10 H10       -12.2872   -0.3388   64.4060 H       1  ZINC000132775118    0.0800
     11 C11       -12.1315    1.7959   64.5451 C.3     1  ZINC000132775118   -0.1300
     12 C12       -13.1682    2.0002   63.4356 C.3     1  ZINC000132775118   -0.1200
     13 C13       -12.4970    1.8880   62.0665 C.3     1  ZINC000132775118   -0.1200
     14 C14       -11.8382    0.5129   61.9173 C.3     1  ZINC000132775118   -0.1200
     15 C15       -10.7962    0.3564   63.0254 C.3     1  ZINC000132775118    0.0700
     16 H16       -10.0612    1.1574   62.9467 H       1  ZINC000132775118    0.0600
     17 N17       -10.4570   -2.3912   59.5354 N.am    1  ZINC000132775118   -0.6200
     18 C18       -11.3816   -3.3053   58.8511 C.3     1  ZINC000132775118    0.1100
     19 C19       -11.9478   -2.5997   57.6148 C.3     1  ZINC000132775118   -0.1200
     20 C20       -10.7928   -2.1042   56.7416 C.3     1  ZINC000132775118   -0.1000
     21 C21       -11.3459   -1.4394   55.5074 C.2     1  ZINC000132775118    0.5300
     22 O22       -10.9241   -1.7464   54.4126 O.2     1  ZINC000132775118   -0.5300
     23 N23       -12.3092   -0.5036   55.6204 N.am    1  ZINC000132775118   -0.6200
     24 C24       -12.9396    0.2163   54.5041 C.3     1  ZINC000132775118    0.1000
     25 C25       -13.9606    1.2009   55.1122 C.3     1  ZINC000132775118   -0.1300
     26 C26       -13.4448    1.3838   56.5640 C.3     1  ZINC000132775118   -0.1300
     27 C27       -12.9101   -0.0371   56.8832 C.3     1  ZINC000132775118    0.1000
     28 C28        -9.9511   -1.0975   57.5292 C.3     1  ZINC000132775118   -0.1200
     29 C29        -9.3660   -1.7813   58.7631 C.3     1  ZINC000132775118    0.1200
     30 H30        -8.6587   -1.6062   61.5450 H       1  ZINC000132775118    0.0700
     31 H31        -9.6316   -0.2222   60.9914 H       1  ZINC000132775118    0.1200
     32 H32        -8.6062   -2.0077   63.9094 H       1  ZINC000132775118    0.1300
     33 H33        -8.1811   -0.3345   63.4884 H       1  ZINC000132775118    0.0700
     34 H34       -10.7390    0.4382   66.3456 H       1  ZINC000132775118    0.4000
     35 H35       -12.6195    1.8622   65.5175 H       1  ZINC000132775118    0.0800
     36 H36       -11.3595    2.5616   64.4691 H       1  ZINC000132775118    0.0700
     37 H37       -13.9446    1.2399   63.5213 H       1  ZINC000132775118    0.0700
     38 H38       -13.6181    2.9878   63.5382 H       1  ZINC000132775118    0.0700
     39 H39       -13.2457    2.0171   61.2849 H       1  ZINC000132775118    0.0700
     40 H40       -11.7385    2.6650   61.9707 H       1  ZINC000132775118    0.0600
     41 H41       -12.5958   -0.2661   62.0023 H       1  ZINC000132775118    0.0800
     42 H42       -11.3499    0.4456   60.9452 H       1  ZINC000132775118    0.0700
     43 H43       -10.8471   -4.2048   58.5458 H       1  ZINC000132775118    0.0800
     44 H44       -12.1962   -3.5726   59.5244 H       1  ZINC000132775118    0.0900
     45 H45       -12.5602   -3.2989   57.0455 H       1  ZINC000132775118    0.0800
     46 H46       -12.5575   -1.7519   57.9271 H       1  ZINC000132775118    0.0800
     47 H47       -10.1692   -2.9494   56.4503 H       1  ZINC000132775118    0.0900
     48 H48       -12.1834    0.7658   53.9433 H       1  ZINC000132775118    0.0700
     49 H49       -13.4500   -0.4894   53.8489 H       1  ZINC000132775118    0.0700
     50 H50       -13.9477    2.1498   54.5760 H       1  ZINC000132775118    0.0800
     51 H51       -14.9614    0.7689   55.1100 H       1  ZINC000132775118    0.0800
     52 H52       -12.6456    2.1238   56.6044 H       1  ZINC000132775118    0.0800
     53 H53       -14.2590    1.6531   57.2369 H       1  ZINC000132775118    0.0900
     54 H54       -13.7281   -0.6913   57.1848 H       1  ZINC000132775118    0.0700
     55 H55       -12.1524    0.0097   57.6653 H       1  ZINC000132775118    0.0800
     56 H56        -9.1424   -0.7274   56.8989 H       1  ZINC000132775118    0.0800
     57 H57       -10.5796   -0.2638   57.8422 H       1  ZINC000132775118    0.0800
     58 H58        -8.8485   -1.0450   59.3780 H       1  ZINC000132775118    0.1000
     59 H59        -8.6668   -2.5580   58.4534 H       1  ZINC000132775118    0.0700
@<TRIPOS>BOND
     1     1     2    2
     2     2     3    1
     3     2    17   am
     4     3     4    1
     5     3    30    1
     6     3    31    1
     7     4    15    1
     8     4     5    1
     9     5     6    1
    10     5    32    1
    11     5    33    1
    12     6     7    2
    13     6     8   am
    14     8     9    1
    15     8    34    1
    16     9    10    1
    17     9    15    1
    18     9    11    1
    19    11    12    1
    20    11    35    1
    21    11    36    1
    22    12    13    1
    23    12    37    1
    24    12    38    1
    25    13    14    1
    26    13    39    1
    27    13    40    1
    28    14    15    1
    29    14    41    1
    30    14    42    1
    31    15    16    1
    32    17    29    1
    33    17    18    1
    34    18    19    1
    35    18    43    1
    36    18    44    1
    37    19    20    1
    38    19    45    1
    39    19    46    1
    40    20    21    1
    41    20    28    1
    42    20    47    1
    43    21    22    2
    44    21    23   am
    45    23    27    1
    46    23    24    1
    47    24    25    1
    48    24    48    1
    49    24    49    1
    50    25    26    1
    51    25    50    1
    52    25    51    1
    53    26    27    1
    54    26    52    1
    55    26    53    1
    56    27    54    1
    57    27    55    1
    58    28    29    1
    59    28    56    1
    60    28    57    1
    61    29    58    1
    62    29    59    1
@<TRIPOS>SUBSTRUCTURE
     1 ZINC000132775118        1 TEMP              0 ****  ****    0 ROOT


##########                                Name:    ZINC000245764166
##########                DOCK_Rotatable_Bonds:                   8
##########                         Heavy_Atoms:                  26
##########                    Molecular_Weight:             359.512
##########                DOCK_Rotatable_Bonds:                   8
##########                       Formal_Charge:          -0.0100008
##########                     HBond_Acceptors:                   5
##########                        HBond_Donors:                   2
##########                         Heavy_Atoms:                  26
##########                          Grid_Score:          -28.702021
##########                     Grid_vdw_energy:          -27.246304
##########                      Grid_es_energy:           -1.455718
##########           Internal_energy_repulsive:           27.357775

@<TRIPOS>MOLECULE
ZINC000245764166
 59 61 1 0 0
SMALL
USER_CHARGES


@<TRIPOS>ATOM
      1 C1         -6.1535    2.5730   52.9833 C.3     1  ZINC000245764166    0.0200
      2 N2         -7.5372    2.3233   53.4089 N.3     1  ZINC000245764166   -0.5300
      3 C3         -8.2627    1.5342   52.4044 C.3     1  ZINC000245764166    0.0600
      4 C4         -9.7348    1.5423   52.7268 C.ar    1  ZINC000245764166   -0.0800
      5 C5        -10.3560    0.3821   53.1501 C.ar    1  ZINC000245764166   -0.1000
      6 C6        -11.7063    0.3894   53.4456 C.ar    1  ZINC000245764166   -0.1200
      7 C7        -12.4354    1.5569   53.3185 C.ar    1  ZINC000245764166   -0.1200
      8 C8        -11.8141    2.7173   52.8961 C.ar    1  ZINC000245764166   -0.1200
      9 C9        -10.4628    2.7110   52.6046 C.ar    1  ZINC000245764166   -0.1200
     10 C10        -7.5735    1.6653   54.7218 C.3     1  ZINC000245764166    0.0500
     11 C11        -7.8428    2.7088   55.8079 C.3     1  ZINC000245764166    0.1900
     12 C12        -6.5928    2.8781   56.6738 C.3     1  ZINC000245764166   -0.1600
     13 C13        -8.1953    4.0463   55.1541 C.3     1  ZINC000245764166   -0.1500
     14 N14        -8.9602    2.2650   56.6450 N.am    1  ZINC000245764166   -0.7400
     15 C15        -8.9320    1.0438   57.2146 C.2     1  ZINC000245764166    0.7000
     16 O16        -7.9799    0.3098   57.0324 O.2     1  ZINC000245764166   -0.5800
     17 N17        -9.9593    0.6361   57.9860 N.am    1  ZINC000245764166   -0.7500
     18 C18        -9.9294   -0.6920   58.6036 C.3     1  ZINC000245764166    0.1800
     19 H19        -8.9151   -0.9091   58.9385 H       1  ZINC000245764166    0.0900
     20 C20       -10.3522   -1.7352   57.5724 C.3     1  ZINC000245764166   -0.1300
     21 C21       -10.2582   -3.1237   58.2146 C.3     1  ZINC000245764166   -0.1100
     22 C22       -11.2545   -3.1871   59.3721 C.3     1  ZINC000245764166   -0.1100
     23 C23       -10.9650   -2.1248   60.4064 C.3     1  ZINC000245764166    0.0900
     24 H24       -11.7617   -2.1271   61.1503 H       1  ZINC000245764166    0.0600
     25 O25        -9.7082   -2.3147   61.0702 O.3     1  ZINC000245764166   -0.3600
     26 C26        -9.4122   -1.0694   61.7331 C.3     1  ZINC000245764166    0.0500
     27 C27       -10.1384    0.0477   60.9564 C.3     1  ZINC000245764166   -0.1500
     28 C28       -10.8720   -0.7083   59.8089 C.3     1  ZINC000245764166   -0.1300
     29 H29       -11.8512   -0.2842   59.5864 H       1  ZINC000245764166    0.1000
     30 H30        -6.1559    3.0762   52.0164 H       1  ZINC000245764166    0.0800
     31 H31        -5.6551    3.2033   53.7197 H       1  ZINC000245764166    0.0700
     32 H32        -5.6228    1.6247   52.8980 H       1  ZINC000245764166    0.0200
     33 H33        -8.1045    1.9689   51.4174 H       1  ZINC000245764166    0.0400
     34 H34        -7.8945    0.5084   52.4129 H       1  ZINC000245764166    0.1100
     35 H35        -9.7863   -0.5300   53.2494 H       1  ZINC000245764166    0.1200
     36 H36       -12.1918   -0.5172   53.7757 H       1  ZINC000245764166    0.1200
     37 H37       -13.4905    1.5624   53.5489 H       1  ZINC000245764166    0.1200
     38 H38       -12.3838    3.6293   52.7965 H       1  ZINC000245764166    0.1200
     39 H39        -9.9774    3.6175   52.2747 H       1  ZINC000245764166    0.1200
     40 H40        -8.3664    0.9175   54.7318 H       1  ZINC000245764166    0.0400
     41 H41        -6.6154    1.1816   54.9125 H       1  ZINC000245764166    0.1000
     42 H42        -5.7614    3.2083   56.0509 H       1  ZINC000245764166    0.0700
     43 H43        -6.7847    3.6214   57.4475 H       1  ZINC000245764166    0.0800
     44 H44        -6.3416    1.9252   57.1396 H       1  ZINC000245764166    0.0500
     45 H45        -9.1513    3.9576   54.6379 H       1  ZINC000245764166    0.0600
     46 H46        -8.2666    4.8179   55.9207 H       1  ZINC000245764166    0.0800
     47 H47        -7.4193    4.3163   54.4378 H       1  ZINC000245764166    0.0600
     48 H48        -9.7203    2.8500   56.7895 H       1  ZINC000245764166    0.3900
     49 H49       -10.7182    1.2221   58.1324 H       1  ZINC000245764166    0.3900
     50 H50       -11.3791   -1.5455   57.2600 H       1  ZINC000245764166    0.0600
     51 H51        -9.6891   -1.6859   56.7089 H       1  ZINC000245764166    0.0700
     52 H52       -10.5039   -3.8872   57.4764 H       1  ZINC000245764166    0.0700
     53 H53        -9.2480   -3.2870   58.5902 H       1  ZINC000245764166    0.0700
     54 H54       -12.2624   -3.0413   58.9836 H       1  ZINC000245764166    0.0800
     55 H55       -11.1931   -4.1687   59.8422 H       1  ZINC000245764166    0.0700
     56 H56        -9.7740   -1.1016   62.7607 H       1  ZINC000245764166    0.0600
     57 H57        -8.3372   -0.8900   61.7219 H       1  ZINC000245764166    0.0800
     58 H58       -10.8570    0.5556   61.5997 H       1  ZINC000245764166    0.0800
     59 H59        -9.4201    0.7586   60.5480 H       1  ZINC000245764166    0.0800
@<TRIPOS>BOND
     1     1     2    1
     2     1    30    1
     3     1    31    1
     4     1    32    1
     5     2     3    1
     6     2    10    1
     7     3     4    1
     8     3    33    1
     9     3    34    1
    10     4     9   ar
    11     4     5   ar
    12     5     6   ar
    13     5    35    1
    14     6     7   ar
    15     6    36    1
    16     7     8   ar
    17     7    37    1
    18     8     9   ar
    19     8    38    1
    20     9    39    1
    21    10    11    1
    22    10    40    1
    23    10    41    1
    24    11    12    1
    25    11    13    1
    26    11    14    1
    27    12    42    1
    28    12    43    1
    29    12    44    1
    30    13    45    1
    31    13    46    1
    32    13    47    1
    33    14    15   am
    34    14    48    1
    35    15    16    2
    36    15    17   am
    37    17    18    1
    38    17    49    1
    39    18    19    1
    40    18    28    1
    41    18    20    1
    42    20    21    1
    43    20    50    1
    44    20    51    1
    45    21    22    1
    46    21    52    1
    47    21    53    1
    48    22    23    1
    49    22    54    1
    50    22    55    1
    51    23    24    1
    52    23    28    1
    53    23    25    1
    54    25    26    1
    55    26    27    1
    56    26    56    1
    57    26    57    1
    58    27    28    1
    59    27    58    1
    60    27    59    1
    61    28    29    1
@<TRIPOS>SUBSTRUCTURE
     1 ZINC000245764166        1 TEMP              0 ****  ****    0 ROOT


##########                                Name:    ZINC001018437438
##########                DOCK_Rotatable_Bonds:                   8
##########                         Heavy_Atoms:                  24
##########                    Molecular_Weight:              333.39
##########                DOCK_Rotatable_Bonds:                   8
##########                       Formal_Charge:        -4.17233e-07
##########                     HBond_Acceptors:                   8
##########                        HBond_Donors:                   4
##########                         Heavy_Atoms:                  24
##########                          Grid_Score:          -28.695145
##########                     Grid_vdw_energy:          -27.382195
##########                      Grid_es_energy:           -1.312949
##########           Internal_energy_repulsive:           87.164528

@<TRIPOS>MOLECULE
ZINC001018437438
 47 49 1 0 0
SMALL
USER_CHARGES


@<TRIPOS>ATOM
      1 C1         -1.1166   -0.0548   44.7875 C.3     1  ZINC001018437438   -0.1400
      2 C2         -1.3839    0.7691   46.0486 C.3     1  ZINC001018437438    0.1400
      3 H3         -2.4317    1.0686   46.0742 H       1  ZINC001018437438    0.0700
      4 C4         -1.0594   -0.0699   47.2886 C.3     1  ZINC001018437438   -0.1300
      5 C5         -1.1949    0.8017   48.5392 C.3     1  ZINC001018437438   -0.1300
      6 C6         -0.1982    1.9607   48.4658 C.3     1  ZINC001018437438    0.1300
      7 H7          0.8140    1.5653   48.3824 H       1  ZINC001018437438    0.1000
      8 N8         -0.3063    2.7761   49.6781 N.am    1  ZINC001018437438   -0.7200
      9 C9          0.4621    2.4961   50.7493 C.2     1  ZINC001018437438    0.6000
     10 O10         1.2464    1.5674   50.7091 O.2     1  ZINC001018437438   -0.5100
     11 C11         0.3522    3.3141   51.9677 C.2     1  ZINC001018437438   -0.0400
     12 C12         1.0896    3.1753   53.1307 C.2     1  ZINC001018437438   -0.1400
     13 C13         0.6225    4.1755   53.9865 C.2     1  ZINC001018437438    0.0600
     14 C14         1.1112    4.4450   55.3863 C.3     1  ZINC001018437438   -0.0800
     15 C15         0.1792    5.2154   56.3238 C.3     1  ZINC001018437438   -0.1700
     16 C16         0.4067    3.7169   56.5329 C.3     1  ZINC001018437438   -0.1600
     17 N17        -0.3143    4.8375   53.3566 N.2     1  ZINC001018437438   -0.2600
     18 N18        -0.4939    4.3662   52.1752 N.pl3   1  ZINC001018437438   -0.3800
     19 C19        -0.5130    2.8227   47.2392 C.3     1  ZINC001018437438    0.1000
     20 N20        -0.5299    1.9646   46.0462 N.am    1  ZINC001018437438   -0.6100
     21 C21         0.2274    2.2659   44.9729 C.2     1  ZINC001018437438    0.5200
     22 O22         0.2083    1.5471   43.9962 O.2     1  ZINC001018437438   -0.4800
     23 C23         1.0981    3.4959   44.9864 C.3     1  ZINC001018437438   -0.1700
     24 C24         1.8020    3.6276   43.6603 C.2     1  ZINC001018437438    0.5200
     25 N25         1.2201    4.3086   42.6533 N.am    1  ZINC001018437438   -0.8600
     26 O26         2.8920    3.1208   43.4995 O.2     1  ZINC001018437438   -0.5000
     27 H27        -0.0503   -0.2681   44.7120 H       1  ZINC001018437438    0.0700
     28 H28        -1.6715   -0.9914   44.8409 H       1  ZINC001018437438    0.0500
     29 H29        -1.4375    0.5081   43.9109 H       1  ZINC001018437438    0.0800
     30 H30        -1.7531   -0.9082   47.3524 H       1  ZINC001018437438    0.0900
     31 H31        -0.0390   -0.4462   47.2163 H       1  ZINC001018437438    0.0700
     32 H32        -2.2088    1.1977   48.5976 H       1  ZINC001018437438    0.0700
     33 H33        -0.9885    0.2007   49.4248 H       1  ZINC001018437438    0.0800
     34 H34        -0.9310    3.5175   49.7098 H       1  ZINC001018437438    0.4000
     35 H35         1.8620    2.4482   53.3335 H       1  ZINC001018437438    0.1700
     36 H36         2.1824    4.6209   55.4846 H       1  ZINC001018437438    0.1200
     37 H37         0.6373    5.8986   57.0391 H       1  ZINC001018437438    0.1000
     38 H38        -0.7873    5.5273   55.9281 H       1  ZINC001018437438    0.1000
     39 H39        -0.4101    3.0429   56.2747 H       1  ZINC001018437438    0.1000
     40 H40         1.0145    3.4143   57.3856 H       1  ZINC001018437438    0.1000
     41 H41        -1.1370    4.7019   51.5314 H       1  ZINC001018437438    0.4400
     42 H42        -1.4891    3.2918   47.3631 H       1  ZINC001018437438    0.0700
     43 H43         0.2521    3.5908   47.1262 H       1  ZINC001018437438    0.0900
     44 H44         0.4797    4.3769   45.1585 H       1  ZINC001018437438    0.1200
     45 H45         1.8369    3.4094   45.7830 H       1  ZINC001018437438    0.1200
     46 H46         1.6725    4.3926   41.7994 H       1  ZINC001018437438    0.4000
     47 H47         0.3489    4.7150   42.7826 H       1  ZINC001018437438    0.4000
@<TRIPOS>BOND
     1     1     2    1
     2     1    27    1
     3     1    28    1
     4     1    29    1
     5     2     3    1
     6     2    20    1
     7     2     4    1
     8     4     5    1
     9     4    30    1
    10     4    31    1
    11     5     6    1
    12     5    32    1
    13     5    33    1
    14     6     7    1
    15     6     8    1
    16     6    19    1
    17     8     9   am
    18     8    34    1
    19     9    10    2
    20     9    11    1
    21    11    18    1
    22    11    12    2
    23    12    13    1
    24    12    35    1
    25    13    14    1
    26    13    17    2
    27    14    16    1
    28    14    15    1
    29    14    36    1
    30    15    16    1
    31    15    37    1
    32    15    38    1
    33    16    39    1
    34    16    40    1
    35    17    18    1
    36    18    41    1
    37    19    20    1
    38    19    42    1
    39    19    43    1
    40    20    21   am
    41    21    22    2
    42    21    23    1
    43    23    24    1
    44    23    44    1
    45    23    45    1
    46    24    25   am
    47    24    26    2
    48    25    46    1
    49    25    47    1
@<TRIPOS>SUBSTRUCTURE
     1 ZINC001018437438        1 TEMP              0 ****  ****    0 ROOT


##########                                Name:    ZINC000800038938
##########                DOCK_Rotatable_Bonds:                   6
##########                         Heavy_Atoms:                  25
##########                    Molecular_Weight:             386.274
##########                DOCK_Rotatable_Bonds:                   6
##########                       Formal_Charge:           0.0200003
##########                     HBond_Acceptors:                   7
##########                        HBond_Donors:                   0
##########                         Heavy_Atoms:                  25
##########                          Grid_Score:          -28.689308
##########                     Grid_vdw_energy:          -27.484514
##########                      Grid_es_energy:           -1.204793
##########           Internal_energy_repulsive:           16.104324

@<TRIPOS>MOLECULE
ZINC000800038938
 46 48 1 0 0
SMALL
USER_CHARGES


@<TRIPOS>ATOM
      1 C1        -16.3744   -6.8093   50.1492 C.3     1  ZINC000800038938    0.0300
      2 O2        -16.6582   -5.5644   50.7910 O.3     1  ZINC000800038938   -0.3800
      3 C3        -17.2156   -5.6990   52.1000 C.3     1  ZINC000800038938    0.0900
      4 H4        -18.0809   -6.3612   52.0705 H       1  ZINC000800038938    0.0700
      5 C5        -17.6273   -4.3154   52.6438 C.3     1  ZINC000800038938   -0.1400
      6 C6        -17.2853   -4.3833   54.1529 C.3     1  ZINC000800038938   -0.1400
      7 C7        -15.9631   -5.1900   54.1677 C.3     1  ZINC000800038938    0.0900
      8 H8        -15.1190   -4.5437   53.9274 H       1  ZINC000800038938    0.0900
      9 O9        -15.7668   -5.8203   55.4610 O.3     1  ZINC000800038938   -0.3500
     10 C10       -15.0351   -5.1466   56.3625 C.2     1  ZINC000800038938    0.4500
     11 O11       -14.3882   -5.7484   57.1866 O.2     1  ZINC000800038938   -0.4800
     12 C12       -15.0206   -3.6398   56.3466 C.3     1  ZINC000800038938    0.1500
     13 H13       -15.1338   -3.2789   55.3244 H       1  ZINC000800038938    0.1200
     14 C14       -16.1660   -3.0947   57.2256 C.3     1  ZINC000800038938   -0.1200
     15 C15       -15.5211   -1.8607   57.9106 C.3     1  ZINC000800038938   -0.1300
     16 C16       -14.0646   -2.3458   58.1177 C.3     1  ZINC000800038938    0.0900
     17 N17       -13.7575   -3.1461   56.9142 N.am    1  ZINC000800038938   -0.6000
     18 C18       -12.5253   -3.3847   56.4230 C.2     1  ZINC000800038938    0.5800
     19 O19       -12.3906   -4.0604   55.4215 O.2     1  ZINC000800038938   -0.4900
     20 C20       -11.3381   -2.8249   57.1019 C.ar    1  ZINC000800038938   -0.1100
     21 C21       -10.8646   -1.5584   56.7558 C.ar    1  ZINC000800038938   -0.0700
     22 C22        -9.7549   -1.0415   57.3940 C.ar    1  ZINC000800038938   -0.0400
     23 Cl23       -9.1647    0.5338   56.9653 Cl      1  ZINC000800038938   -0.0500
     24 C24        -9.1117   -1.7766   58.3758 C.ar    1  ZINC000800038938   -0.0700
     25 C25        -9.5752   -3.0323   58.7235 C.ar    1  ZINC000800038938   -0.1000
     26 C26       -10.6879   -3.5590   58.0974 C.ar    1  ZINC000800038938    0.0100
     27 Cl27      -11.2681   -5.1355   58.5353 Cl      1  ZINC000800038938   -0.0300
     28 C28       -16.1579   -6.2563   53.0686 C.3     1  ZINC000800038938   -0.1200
     29 H29       -15.9543   -6.6212   49.1612 H       1  ZINC000800038938    0.0900
     30 H30       -15.6578   -7.3716   50.7478 H       1  ZINC000800038938    0.0400
     31 H31       -17.2949   -7.3845   50.0492 H       1  ZINC000800038938    0.0400
     32 H32       -17.0520   -3.5277   52.1573 H       1  ZINC000800038938    0.0800
     33 H33       -18.6956   -4.1521   52.5017 H       1  ZINC000800038938    0.0800
     34 H34       -17.1324   -3.3837   54.5597 H       1  ZINC000800038938    0.0800
     35 H35       -18.0654   -4.9100   54.7025 H       1  ZINC000800038938    0.0800
     36 H36       -17.0147   -2.7949   56.6109 H       1  ZINC000800038938    0.1000
     37 H37       -16.4678   -3.8338   57.9677 H       1  ZINC000800038938    0.0900
     38 H38       -15.5536   -0.9894   57.2565 H       1  ZINC000800038938    0.0900
     39 H39       -16.0017   -1.6485   58.8656 H       1  ZINC000800038938    0.1000
     40 H40       -13.3877   -1.4944   58.1884 H       1  ZINC000800038938    0.0900
     41 H41       -13.9939   -2.9631   59.0133 H       1  ZINC000800038938    0.0800
     42 H42       -11.3649   -0.9842   55.9901 H       1  ZINC000800038938    0.1500
     43 H43        -8.2441   -1.3675   58.8720 H       1  ZINC000800038938    0.1500
     44 H44        -9.0686   -3.6005   59.4898 H       1  ZINC000800038938    0.1500
     45 H45       -16.5095   -7.1885   53.5108 H       1  ZINC000800038938    0.0900
     46 H46       -15.2193   -6.4239   52.5403 H       1  ZINC000800038938    0.0900
@<TRIPOS>BOND
     1     1     2    1
     2     1    29    1
     3     1    30    1
     4     1    31    1
     5     2     3    1
     6     3     4    1
     7     3    28    1
     8     3     5    1
     9     5     6    1
    10     5    32    1
    11     5    33    1
    12     6     7    1
    13     6    34    1
    14     6    35    1
    15     7     8    1
    16     7     9    1
    17     7    28    1
    18     9    10    1
    19    10    11    2
    20    10    12    1
    21    12    13    1
    22    12    17    1
    23    12    14    1
    24    14    15    1
    25    14    36    1
    26    14    37    1
    27    15    16    1
    28    15    38    1
    29    15    39    1
    30    16    17    1
    31    16    40    1
    32    16    41    1
    33    17    18   am
    34    18    19    2
    35    18    20    1
    36    20    26   ar
    37    20    21   ar
    38    21    22   ar
    39    21    42    1
    40    22    23    1
    41    22    24   ar
    42    24    25   ar
    43    24    43    1
    44    25    26   ar
    45    25    44    1
    46    26    27    1
    47    28    45    1
    48    28    46    1
@<TRIPOS>SUBSTRUCTURE
     1 ZINC000800038938        1 TEMP              0 ****  ****    0 ROOT


##########                                Name:    ZINC000654672208
##########                DOCK_Rotatable_Bonds:                   5
##########                         Heavy_Atoms:                  25
##########                    Molecular_Weight:             365.497
##########                DOCK_Rotatable_Bonds:                   5
##########                       Formal_Charge:           0.0100001
##########                     HBond_Acceptors:                   7
##########                        HBond_Donors:                   1
##########                         Heavy_Atoms:                  25
##########                          Grid_Score:          -28.671703
##########                     Grid_vdw_energy:          -27.371502
##########                      Grid_es_energy:           -1.300202
##########           Internal_energy_repulsive:           14.823903

@<TRIPOS>MOLECULE
ZINC000654672208
 52 54 1 0 0
SMALL
USER_CHARGES


@<TRIPOS>ATOM
      1 C1        -18.4994   -6.9744   52.9294 C.3     1  ZINC000654672208   -0.1100
      2 C2        -17.3480   -6.1954   53.5111 C.ar    1  ZINC000654672208   -0.1300
      3 C3        -16.0762   -6.7354   53.5293 C.ar    1  ZINC000654672208    0.1000
      4 N4        -15.0635   -6.0595   54.0363 N.ar    1  ZINC000654672208   -0.4700
      5 C5        -15.2197   -4.8519   54.5421 C.ar    1  ZINC000654672208    0.1200
      6 C6        -14.0292   -4.1222   55.1091 C.3     1  ZINC000654672208   -0.0900
      7 C7        -13.9222   -4.4086   56.6083 C.3     1  ZINC000654672208    0.1500
      8 N8        -12.6355   -3.9182   57.1084 N.am    1  ZINC000654672208   -0.7500
      9 C9        -12.5353   -2.6662   57.5971 C.2     1  ZINC000654672208    0.7100
     10 O10       -13.5128   -1.9436   57.6228 O.2     1  ZINC000654672208   -0.5800
     11 N11       -11.3516   -2.2151   58.0572 N.am    1  ZINC000654672208   -0.6300
     12 C12       -10.1619   -3.0768   58.0324 C.3     1  ZINC000654672208    0.1300
     13 C13        -9.5620   -3.1279   59.4410 C.3     1  ZINC000654672208   -0.1400
     14 C14        -9.2952   -1.7031   59.9302 C.3     1  ZINC000654672208   -0.1100
     15 C15       -10.6177   -0.9300   59.9993 C.3     1  ZINC000654672208   -0.0600
     16 C16       -10.3430    0.4906   60.5031 C.3     1  ZINC000654672208   -0.1200
     17 C17       -11.5972    1.0020   61.2576 C.3     1  ZINC000654672208   -0.5800
     18 S18       -12.0667   -0.4921   62.2202 S.o2    1  ZINC000654672208    2.3800
     19 O19       -11.1998   -0.6315   63.3375 O.2     1  ZINC000654672208   -0.9300
     20 O20       -13.4754   -0.5177   62.4042 O.2     1  ZINC000654672208   -0.9300
     21 C21       -11.5896   -1.6897   60.9186 C.3     1  ZINC000654672208   -0.5800
     22 C22       -11.2260   -0.8510   58.5871 C.3     1  ZINC000654672208    0.1200
     23 C23       -16.4626   -4.2474   54.5580 C.ar    1  ZINC000654672208   -0.1200
     24 C24       -16.6322   -2.8667   55.1377 C.3     1  ZINC000654672208   -0.1200
     25 C25       -17.5503   -4.9253   54.0295 C.ar    1  ZINC000654672208   -0.0800
     26 H26       -18.5861   -6.7548   51.8653 H       1  ZINC000654672208    0.0700
     27 H27       -18.3227   -8.0412   53.0670 H       1  ZINC000654672208    0.0700
     28 H28       -19.4223   -6.6908   53.4353 H       1  ZINC000654672208    0.0700
     29 H29       -15.9096   -7.7226   53.1242 H       1  ZINC000654672208    0.1600
     30 H30       -13.1225   -4.4623   54.6086 H       1  ZINC000654672208    0.0900
     31 H31       -14.1510   -3.0506   54.9517 H       1  ZINC000654672208    0.0900
     32 H32       -14.7327   -3.9032   57.1335 H       1  ZINC000654672208    0.0700
     33 H33       -13.9928   -5.4828   56.7790 H       1  ZINC000654672208    0.0700
     34 H34       -11.8556   -4.4947   57.0878 H       1  ZINC000654672208    0.3900
     35 H35       -10.4449   -4.0817   57.7188 H       1  ZINC000654672208    0.1000
     36 H36        -9.4286   -2.6676   57.3374 H       1  ZINC000654672208    0.0700
     37 H37       -10.2619   -3.6195   60.1168 H       1  ZINC000654672208    0.0700
     38 H38        -8.6257   -3.6857   59.4176 H       1  ZINC000654672208    0.0800
     39 H39        -8.8426   -1.7379   60.9211 H       1  ZINC000654672208    0.0800
     40 H40        -8.6176   -1.2024   59.2386 H       1  ZINC000654672208    0.0800
     41 H41        -9.4876    0.4809   61.1786 H       1  ZINC000654672208    0.1000
     42 H42       -10.1320    1.1450   59.6573 H       1  ZINC000654672208    0.1000
     43 H43       -11.3461    1.8315   61.9186 H       1  ZINC000654672208    0.1400
     44 H44       -12.3865    1.2834   60.5606 H       1  ZINC000654672208    0.1400
     45 H45       -12.4685   -2.0075   60.3579 H       1  ZINC000654672208    0.1400
     46 H46       -11.0925   -2.5518   61.3630 H       1  ZINC000654672208    0.1400
     47 H47       -10.5759   -0.2603   57.9417 H       1  ZINC000654672208    0.0800
     48 H48       -12.2115   -0.3883   58.6390 H       1  ZINC000654672208    0.0800
     49 H49       -16.4852   -2.1232   54.3543 H       1  ZINC000654672208    0.0800
     50 H50       -17.6363   -2.7665   55.5498 H       1  ZINC000654672208    0.0700
     51 H51       -15.8979   -2.7118   55.9282 H       1  ZINC000654672208    0.0700
     52 H52       -18.5332   -4.4777   54.0283 H       1  ZINC000654672208    0.1300
@<TRIPOS>BOND
     1     1     2    1
     2     1    26    1
     3     1    27    1
     4     1    28    1
     5     2    25   ar
     6     2     3   ar
     7     3     4   ar
     8     3    29    1
     9     4     5   ar
    10     5     6    1
    11     5    23   ar
    12     6     7    1
    13     6    30    1
    14     6    31    1
    15     7     8    1
    16     7    32    1
    17     7    33    1
    18     8     9   am
    19     8    34    1
    20     9    10    2
    21     9    11   am
    22    11    22    1
    23    11    12    1
    24    12    13    1
    25    12    35    1
    26    12    36    1
    27    13    14    1
    28    13    37    1
    29    13    38    1
    30    14    15    1
    31    14    39    1
    32    14    40    1
    33    15    21    1
    34    15    16    1
    35    15    22    1
    36    16    17    1
    37    16    41    1
    38    16    42    1
    39    17    18    1
    40    17    43    1
    41    17    44    1
    42    18    19    2
    43    18    20    2
    44    18    21    1
    45    21    45    1
    46    21    46    1
    47    22    47    1
    48    22    48    1
    49    23    24    1
    50    23    25   ar
    51    24    49    1
    52    24    50    1
    53    24    51    1
    54    25    52    1
@<TRIPOS>SUBSTRUCTURE
     1 ZINC000654672208        1 TEMP              0 ****  ****    0 ROOT


##########                                Name:    ZINC001109404798
##########                DOCK_Rotatable_Bonds:                   7
##########                         Heavy_Atoms:                  25
##########                    Molecular_Weight:              360.48
##########                DOCK_Rotatable_Bonds:                   7
##########                       Formal_Charge:           0.0100002
##########                     HBond_Acceptors:                   7
##########                        HBond_Donors:                   1
##########                         Heavy_Atoms:                  25
##########                          Grid_Score:          -28.670462
##########                     Grid_vdw_energy:          -28.441402
##########                      Grid_es_energy:           -0.229059
##########           Internal_energy_repulsive:           32.972195

@<TRIPOS>MOLECULE
ZINC001109404798
 49 52 1 0 0
SMALL
USER_CHARGES


@<TRIPOS>ATOM
      1 C1         -7.8668    3.9063   57.6180 C.3     1  ZINC001109404798   -0.0600
      2 C2         -8.2944    2.4634   57.5381 C.2     1  ZINC001109404798    0.1700
      3 N3         -7.8249    1.5661   56.7239 N.2     1  ZINC001109404798   -0.3900
      4 O4         -8.3751    0.5012   56.9100 O.3     1  ZINC001109404798    0.1000
      5 C5         -9.2754    0.6218   57.8903 C.2     1  ZINC001109404798    0.1900
      6 C6        -10.1700   -0.4661   58.4262 C.3     1  ZINC001109404798    0.1600
      7 H7        -11.0910   -0.0246   58.8069 H       1  ZINC001109404798    0.1000
      8 C8         -9.4528   -1.2048   59.5580 C.3     1  ZINC001109404798   -0.1500
      9 N9        -10.4893   -1.4125   57.3489 N.3     1  ZINC001109404798   -0.4800
     10 C10       -11.2739   -0.7387   56.2535 C.3     1  ZINC001109404798    0.0400
     11 H11       -10.7594    0.0632   55.7240 H       1  ZINC001109404798    0.1100
     12 C12       -12.5616   -0.3186   57.0242 C.3     1  ZINC001109404798   -0.1600
     13 C13       -12.7425   -1.4470   58.0690 C.3     1  ZINC001109404798   -0.1600
     14 C14       -11.5398   -2.3981   57.7899 C.3     1  ZINC001109404798    0.0400
     15 H15       -11.2594   -3.0562   58.6124 H       1  ZINC001109404798    0.1200
     16 C16       -11.8900   -3.1096   56.4483 C.3     1  ZINC001109404798    0.1500
     17 H17       -11.1967   -3.9283   56.2558 H       1  ZINC001109404798    0.1000
     18 N18       -13.2706   -3.5989   56.4690 N.am    1  ZINC001109404798   -0.7200
     19 C19       -13.5317   -4.8632   56.8564 C.2     1  ZINC001109404798    0.5100
     20 O20       -12.6238   -5.5952   57.1893 O.2     1  ZINC001109404798   -0.5300
     21 C21       -14.9518   -5.3672   56.8761 C.3     1  ZINC001109404798   -0.1300
     22 C22       -15.0341   -6.6901   56.1118 C.3     1  ZINC001109404798   -0.0400
     23 C23       -15.4302   -6.4211   54.6830 C.2     1  ZINC001109404798   -0.1000
     24 C24       -15.3208   -5.2154   54.1230 C.2     1  ZINC001109404798   -0.2100
     25 S25       -15.8757   -5.2869   52.4555 S.3     1  ZINC001109404798    0.1000
     26 C26       -16.2356   -7.0009   52.6175 C.2     1  ZINC001109404798   -0.2100
     27 C27       -15.9294   -7.4077   53.8503 C.2     1  ZINC001109404798   -0.1300
     28 C28       -11.6839   -1.9649   55.3832 C.3     1  ZINC001109404798   -0.1100
     29 N29        -9.2280    1.8665   58.3004 N.2     1  ZINC001109404798   -0.4800
     30 H30        -7.0418    4.0022   58.3240 H       1  ZINC001109404798    0.0900
     31 H31        -7.5435    4.2445   56.6335 H       1  ZINC001109404798    0.0900
     32 H32        -8.7055    4.5157   57.9543 H       1  ZINC001109404798    0.0900
     33 H33        -9.2158   -0.5026   60.3573 H       1  ZINC001109404798    0.0700
     34 H34       -10.0999   -1.9917   59.9456 H       1  ZINC001109404798    0.0800
     35 H35        -8.5317   -1.6463   59.1774 H       1  ZINC001109404798    0.0800
     36 H36       -12.4169    0.6422   57.5182 H       1  ZINC001109404798    0.0700
     37 H37       -13.4169   -0.2796   56.3497 H       1  ZINC001109404798    0.0800
     38 H38       -12.6874   -1.0455   59.0808 H       1  ZINC001109404798    0.0700
     39 H39       -13.6874   -1.9671   57.9124 H       1  ZINC001109404798    0.0800
     40 H40       -13.9969   -3.0132   56.2039 H       1  ZINC001109404798    0.4000
     41 H41       -15.2677   -5.5231   57.9075 H       1  ZINC001109404798    0.0900
     42 H42       -15.6044   -4.6332   56.4032 H       1  ZINC001109404798    0.1000
     43 H43       -14.0621   -7.1829   56.1329 H       1  ZINC001109404798    0.0800
     44 H44       -15.7783   -7.3344   56.5800 H       1  ZINC001109404798    0.0800
     45 H45       -14.9488   -4.3304   54.6179 H       1  ZINC001109404798    0.1600
     46 H46       -16.6383   -7.6289   51.8366 H       1  ZINC001109404798    0.1600
     47 H47       -16.0682   -8.4279   54.1766 H       1  ZINC001109404798    0.1400
     48 H48       -12.6181   -1.7514   54.8637 H       1  ZINC001109404798    0.0800
     49 H49       -10.9026   -2.2371   54.6736 H       1  ZINC001109404798    0.0900
@<TRIPOS>BOND
     1     1     2    1
     2     1    30    1
     3     1    31    1
     4     1    32    1
     5     2    29    1
     6     2     3    2
     7     3     4    1
     8     4     5    1
     9     5     6    1
    10     5    29    2
    11     6     7    1
    12     6     8    1
    13     6     9    1
    14     8    33    1
    15     8    34    1
    16     8    35    1
    17     9    14    1
    18     9    10    1
    19    10    11    1
    20    10    28    1
    21    10    12    1
    22    12    13    1
    23    12    36    1
    24    12    37    1
    25    13    14    1
    26    13    38    1
    27    13    39    1
    28    14    15    1
    29    14    16    1
    30    16    17    1
    31    16    18    1
    32    16    28    1
    33    18    19   am
    34    18    40    1
    35    19    20    2
    36    19    21    1
    37    21    22    1
    38    21    41    1
    39    21    42    1
    40    22    23    1
    41    22    43    1
    42    22    44    1
    43    23    27    1
    44    23    24    2
    45    24    25    1
    46    24    45    1
    47    25    26    1
    48    26    27    2
    49    26    46    1
    50    27    47    1
    51    28    48    1
    52    28    49    1
@<TRIPOS>SUBSTRUCTURE
     1 ZINC001109404798        1 TEMP              0 ****  ****    0 ROOT


##########                                Name:    ZINC000624498741
##########                DOCK_Rotatable_Bonds:                   7
##########                         Heavy_Atoms:                  27
##########                    Molecular_Weight:             379.339
##########                DOCK_Rotatable_Bonds:                   7
##########                       Formal_Charge:           0.0300003
##########                     HBond_Acceptors:                   9
##########                        HBond_Donors:                   0
##########                         Heavy_Atoms:                  27
##########                          Grid_Score:          -28.642796
##########                     Grid_vdw_energy:          -26.982697
##########                      Grid_es_energy:           -1.660098
##########           Internal_energy_repulsive:            9.981414

@<TRIPOS>MOLECULE
ZINC000624498741
 43 45 1 0 0
SMALL
USER_CHARGES


@<TRIPOS>ATOM
      1 C1          0.0494    4.4674   46.8362 C.3     1  ZINC000624498741   -0.1100
      2 C2         -0.4346    3.3949   47.7778 C.ar    1  ZINC000624498741   -0.0900
      3 C3         -1.0830    3.7432   48.9420 C.ar    1  ZINC000624498741   -0.0400
      4 C4         -1.5317    2.7482   49.8140 C.ar    1  ZINC000624498741   -0.0500
      5 C5         -2.2277    3.1172   51.0629 C.2     1  ZINC000624498741    0.2300
      6 N6         -3.5275    3.0454   51.2934 N.2     1  ZINC000624498741   -0.4700
      7 C7         -3.6939    3.4803   52.5521 C.2     1  ZINC000624498741    0.1800
      8 C8         -5.0034    3.5897   53.2897 C.3     1  ZINC000624498741   -0.0300
      9 C9         -5.9903    2.5622   52.7319 C.3     1  ZINC000624498741   -0.1300
     10 C10        -6.8820    2.0454   53.8628 C.3     1  ZINC000624498741    0.0900
     11 N11        -8.1289    1.5205   53.3005 N.am    1  ZINC000624498741   -0.5000
     12 C12        -9.2950    2.1793   53.5228 C.2     1  ZINC000624498741    0.1300
     13 C13       -10.4595    1.7136   53.0140 C.2     1  ZINC000624498741   -0.2300
     14 C14       -10.4689    0.5394   52.2482 C.2     1  ZINC000624498741   -0.0200
     15 C15        -9.2963   -0.1208   52.0256 C.2     1  ZINC000624498741   -0.2400
     16 C16        -8.1045    0.3932   52.5644 C.2     1  ZINC000624498741    0.5100
     17 O17        -7.0481   -0.1875   52.3729 O.2     1  ZINC000624498741   -0.5500
     18 N18        -2.5208    3.7896   53.0204 N.2     1  ZINC000624498741   -0.3700
     19 O19        -1.6635    3.5855   52.1872 O.3     1  ZINC000624498741    0.0900
     20 C20        -1.3205    1.4035   49.5012 C.ar    1  ZINC000624498741   -0.0200
     21 C21        -0.6710    1.0634   48.3346 C.ar    1  ZINC000624498741   -0.1900
     22 C22        -0.2311    2.0558   47.4676 C.ar    1  ZINC000624498741    0.1300
     23 O23         0.4087    1.7165   46.3191 O.3     1  ZINC000624498741   -0.3000
     24 C24        -0.4083    1.3537   45.2042 C.3     1  ZINC000624498741    0.6000
     25 F25        -1.4522    0.5302   45.6393 F       1  ZINC000624498741   -0.1600
     26 F26        -0.9385    2.5087   44.6191 F       1  ZINC000624498741   -0.1300
     27 F27         0.3658    0.6673   44.2626 F       1  ZINC000624498741   -0.1600
     28 H28        -0.7365    4.7025   46.1185 H       1  ZINC000624498741    0.0800
     29 H29         0.3022    5.3627   47.4043 H       1  ZINC000624498741    0.0800
     30 H30         0.9326    4.1128   46.3047 H       1  ZINC000624498741    0.0800
     31 H31        -1.2441    4.7842   49.1806 H       1  ZINC000624498741    0.1500
     32 H32        -4.8402    3.3982   54.3502 H       1  ZINC000624498741    0.1000
     33 H33        -5.4109    4.5924   53.1600 H       1  ZINC000624498741    0.1000
     34 H34        -6.6091    3.0308   51.9666 H       1  ZINC000624498741    0.0800
     35 H35        -5.4395    1.7296   52.2944 H       1  ZINC000624498741    0.0800
     36 H36        -6.3635    1.2517   54.4005 H       1  ZINC000624498741    0.1100
     37 H37        -7.1082    2.8616   54.5490 H       1  ZINC000624498741    0.1000
     38 H38        -9.2934    3.0843   54.1120 H       1  ZINC000624498741    0.1600
     39 H39       -11.3810    2.2460   53.1983 H       1  ZINC000624498741    0.1500
     40 H40       -11.3944    0.1615   51.8393 H       1  ZINC000624498741    0.1400
     41 H41        -9.2833   -1.0270   51.4381 H       1  ZINC000624498741    0.1500
     42 H42        -1.6654    0.6314   50.1729 H       1  ZINC000624498741    0.1500
     43 H43        -0.5070    0.0238   48.0921 H       1  ZINC000624498741    0.1500
@<TRIPOS>BOND
     1     1     2    1
     2     1    28    1
     3     1    29    1
     4     1    30    1
     5     2    22   ar
     6     2     3   ar
     7     3     4   ar
     8     3    31    1
     9     4     5    1
    10     4    20   ar
    11     5    19    1
    12     5     6    2
    13     6     7    1
    14     7     8    1
    15     7    18    2
    16     8     9    1
    17     8    32    1
    18     8    33    1
    19     9    10    1
    20     9    34    1
    21     9    35    1
    22    10    11    1
    23    10    36    1
    24    10    37    1
    25    11    16   am
    26    11    12    1
    27    12    13    2
    28    12    38    1
    29    13    14    1
    30    13    39    1
    31    14    15    2
    32    14    40    1
    33    15    16    1
    34    15    41    1
    35    16    17    2
    36    18    19    1
    37    20    21   ar
    38    20    42    1
    39    21    22   ar
    40    21    43    1
    41    22    23    1
    42    23    24    1
    43    24    25    1
    44    24    26    1
    45    24    27    1
@<TRIPOS>SUBSTRUCTURE
     1 ZINC000624498741        1 TEMP              0 ****  ****    0 ROOT


##########                                Name:    ZINC000355549087
##########                DOCK_Rotatable_Bonds:                   9
##########                         Heavy_Atoms:                  23
##########                    Molecular_Weight:             336.415
##########                DOCK_Rotatable_Bonds:                   9
##########                       Formal_Charge:        -9.53674e-07
##########                     HBond_Acceptors:                   8
##########                        HBond_Donors:                   4
##########                         Heavy_Atoms:                  23
##########                          Grid_Score:          -28.642469
##########                     Grid_vdw_energy:          -26.340080
##########                      Grid_es_energy:           -2.302389
##########           Internal_energy_repulsive:           14.967148

@<TRIPOS>MOLECULE
ZINC000355549087
 43 44 1 0 0
SMALL
USER_CHARGES


@<TRIPOS>ATOM
      1 C1        -16.3924   -1.9101   54.6624 C.3     1  <0>        -0.1500
      2 C2        -16.1874   -2.9335   55.7811 C.3     1  <0>        -0.1200
      3 C3        -15.0149   -3.8498   55.4255 C.3     1  <0>        -0.1000
      4 H4        -14.1695   -3.2463   55.0950 H       1  <0>         0.0800
      5 C5        -15.4330   -4.8006   54.3022 C.3     1  <0>        -0.1500
      6 C6        -14.6108   -4.6623   56.6575 C.3     1  <0>         0.0900
      7 H7        -15.4905   -4.8513   57.2726 H       1  <0>         0.1000
      8 O8        -14.0433   -5.9063   56.2424 O.3     1  <0>        -0.3500
      9 C9        -14.8694   -7.0407   56.5121 C.3     1  <0>         0.0200
     10 C10       -13.5949   -3.8889   57.4580 C.2     1  <0>         0.5100
     11 O11       -13.7278   -2.6934   57.6132 O.2     1  <0>        -0.4800
     12 N12       -12.5387   -4.5256   58.0016 N.am    1  <0>        -0.6200
     13 C13       -11.6028   -3.8127   58.7411 C.2     1  <0>         0.2400
     14 N14       -11.8779   -3.0843   59.7756 N.2     1  <0>        -0.5000
     15 C15       -10.8606   -2.4704   60.3652 C.2     1  <0>         0.1700
     16 C16       -11.0242   -1.6030   61.5599 C.2     1  <0>        -0.1100
     17 C17       -10.0778   -1.3525   62.5117 C.2     1  <0>         0.0600
     18 N18       -10.6084   -0.5151   63.4361 N.pl3   1  <0>        -0.5400
     19 C19       -11.9053   -0.2234   63.0789 C.2     1  <0>        -0.0600
     20 C20       -12.8273    0.6487   63.8150 C.2     1  <0>         0.5900
     21 N21       -12.3823    1.8049   64.3457 N.am    1  <0>        -0.8600
     22 O22       -13.9938    0.3280   63.9465 O.2     1  <0>        -0.5300
     23 C23       -12.1814   -0.8844   61.9146 C.2     1  <0>        -0.0600
     24 C24        -9.6678   -2.7014   59.7877 C.2     1  <0>        -0.3200
     25 S25        -9.9248   -3.7793   58.4183 S.3     1  <0>         0.2500
     26 H26       -17.2278   -1.2573   54.9157 H       1  <0>         0.0600
     27 H27       -15.4877   -1.3137   54.5453 H       1  <0>         0.0600
     28 H28       -16.6080   -2.4304   53.7290 H       1  <0>         0.0600
     29 H29       -15.9719   -2.4133   56.7144 H       1  <0>         0.0600
     30 H30       -17.0922   -3.5300   55.8982 H       1  <0>         0.0700
     31 H31       -16.2785   -5.4040   54.6328 H       1  <0>         0.0700
     32 H32       -15.7210   -4.2218   53.4246 H       1  <0>         0.0600
     33 H33       -14.5977   -5.4533   54.0488 H       1  <0>         0.0500
     34 H34       -14.3282   -7.9525   56.2595 H       1  <0>         0.0900
     35 H35       -15.1323   -7.0554   57.5699 H       1  <0>         0.0500
     36 H36       -15.7778   -6.9794   55.9128 H       1  <0>         0.0500
     37 H37       -12.4317   -5.4816   57.8764 H       1  <0>         0.4200
     38 H38        -9.0752   -1.7540   62.5255 H       1  <0>         0.1800
     39 H39       -10.1494   -0.1771   64.2209 H       1  <0>         0.4200
     40 H40       -12.9922    2.3820   64.8314 H       1  <0>         0.4000
     41 H41       -11.4522    2.0599   64.2419 H       1  <0>         0.4100
     42 H42       -13.1149   -0.8641   61.3718 H       1  <0>         0.1500
     43 H43        -8.7185   -2.2994   60.1094 H       1  <0>         0.1800
@<TRIPOS>BOND
     1     1     2    1
     2     1    26    1
     3     1    27    1
     4     1    28    1
     5     2     3    1
     6     2    29    1
     7     2    30    1
     8     3     4    1
     9     3     5    1
    10     3     6    1
    11     5    31    1
    12     5    32    1
    13     5    33    1
    14     6     7    1
    15     6     8    1
    16     6    10    1
    17     8     9    1
    18     9    34    1
    19     9    35    1
    20     9    36    1
    21    10    11    2
    22    10    12   am
    23    12    13    1
    24    12    37    1
    25    13    25    1
    26    13    14    2
    27    14    15    1
    28    15    16    1
    29    15    24    2
    30    16    23    1
    31    16    17    2
    32    17    18    1
    33    17    38    1
    34    18    19    1
    35    18    39    1
    36    19    20    1
    37    19    23    2
    38    20    21   am
    39    20    22    2
    40    21    40    1
    41    21    41    1
    42    23    42    1
    43    24    25    1
    44    24    43    1
@<TRIPOS>SUBSTRUCTURE
     1 <0>         1 TEMP              0 ****  ****    0 ROOT


##########                                Name:    ZINC000774689801
##########                DOCK_Rotatable_Bonds:                   4
##########                         Heavy_Atoms:                  24
##########                    Molecular_Weight:             347.395
##########                DOCK_Rotatable_Bonds:                   4
##########                       Formal_Charge:         -0.00999961
##########                     HBond_Acceptors:                   8
##########                        HBond_Donors:                   1
##########                         Heavy_Atoms:                  24
##########                          Grid_Score:          -28.616211
##########                     Grid_vdw_energy:          -27.450176
##########                      Grid_es_energy:           -1.166035
##########           Internal_energy_repulsive:            7.604095

@<TRIPOS>MOLECULE
ZINC000774689801
 41 44 1 0 0
SMALL
USER_CHARGES


@<TRIPOS>ATOM
      1 C1        -15.4864   -2.3582   55.6744 C.3     1  ZINC000774689801   -0.1200
      2 C2        -15.1346   -3.7945   55.9651 C.2     1  ZINC000774689801    0.0600
      3 C3        -14.4363   -4.1549   57.0539 C.2     1  ZINC000774689801   -0.2800
      4 C4        -13.9398   -3.2269   58.0721 C.2     1  ZINC000774689801    0.5500
      5 O5        -14.6399   -2.3066   58.4493 O.2     1  ZINC000774689801   -0.4900
      6 O6        -12.7060   -3.3928   58.5918 O.3     1  ZINC000774689801   -0.3400
      7 C7        -12.5041   -2.9578   59.9623 C.3     1  ZINC000774689801    0.0900
      8 C8        -11.9297   -1.5398   59.9678 C.3     1  ZINC000774689801   -0.1300
      9 H9        -12.5730   -0.8662   59.4017 H       1  ZINC000774689801    0.1200
     10 C10       -11.7569   -1.0315   61.4180 C.3     1  ZINC000774689801   -0.1300
     11 C11       -10.4512   -0.2128   61.3113 C.3     1  ZINC000774689801    0.1000
     12 N12        -9.7189   -0.7893   60.1776 N.am    1  ZINC000774689801   -0.7400
     13 C13       -10.5274   -1.5343   59.4001 C.2     1  ZINC000774689801    0.5200
     14 O14       -10.1803   -2.1177   58.3951 O.2     1  ZINC000774689801   -0.5100
     15 S15       -14.2024   -5.8944   57.0862 S.3     1  ZINC000774689801    0.3000
     16 C16       -15.0845   -6.0898   55.5763 C.2     1  ZINC000774689801    0.1000
     17 C17       -15.5171   -4.8385   55.1250 C.2     1  ZINC000774689801   -0.2500
     18 C18       -16.2797   -4.8118   53.8624 C.2     1  ZINC000774689801    0.5700
     19 O19       -16.6889   -3.7596   53.4051 O.2     1  ZINC000774689801   -0.5000
     20 N20       -16.5148   -5.9814   53.2225 N.am    1  ZINC000774689801   -0.5500
     21 C21       -17.2469   -6.2143   51.9656 C.3     1  ZINC000774689801    0.0900
     22 C22       -16.8260   -7.6218   51.4951 C.3     1  ZINC000774689801   -0.1300
     23 C23       -16.4452   -8.2998   52.8288 C.3     1  ZINC000774689801   -0.0800
     24 C24       -16.0514   -7.1479   53.7384 C.2     1  ZINC000774689801    0.4200
     25 N25       -15.3794   -7.1872   54.8583 N.2     1  ZINC000774689801   -0.5100
     26 H26       -16.4450   -2.1186   56.1347 H       1  ZINC000774689801    0.0800
     27 H27       -14.7145   -1.7054   56.0819 H       1  ZINC000774689801    0.1000
     28 H28       -15.5543   -2.2118   54.5964 H       1  ZINC000774689801    0.0800
     29 H29       -13.4577   -2.9656   60.4902 H       1  ZINC000774689801    0.0900
     30 H30       -11.8082   -3.6337   60.4592 H       1  ZINC000774689801    0.0800
     31 H31       -12.5928   -0.3963   61.7109 H       1  ZINC000774689801    0.1000
     32 H32       -11.6396   -1.8640   62.1117 H       1  ZINC000774689801    0.0900
     33 H33       -10.6783    0.8360   61.1196 H       1  ZINC000774689801    0.0800
     34 H34        -9.8680   -0.3119   62.2268 H       1  ZINC000774689801    0.0800
     35 H35        -8.7739   -0.6503   60.0089 H       1  ZINC000774689801    0.4100
     36 H36       -18.3217   -6.1824   52.1441 H       1  ZINC000774689801    0.1000
     37 H37       -16.9655   -5.4687   51.2220 H       1  ZINC000774689801    0.1000
     38 H38       -17.6590   -8.1389   51.0187 H       1  ZINC000774689801    0.1100
     39 H39       -15.9676   -7.5686   50.8255 H       1  ZINC000774689801    0.0900
     40 H40       -17.2998   -8.8360   53.2414 H       1  ZINC000774689801    0.1200
     41 H41       -15.6029   -8.9767   52.6851 H       1  ZINC000774689801    0.1200
@<TRIPOS>BOND
     1     1     2    1
     2     1    26    1
     3     1    27    1
     4     1    28    1
     5     2    17    1
     6     2     3    2
     7     3     4    1
     8     3    15    1
     9     4     5    2
    10     4     6    1
    11     6     7    1
    12     7     8    1
    13     7    29    1
    14     7    30    1
    15     8     9    1
    16     8    13    1
    17     8    10    1
    18    10    11    1
    19    10    31    1
    20    10    32    1
    21    11    12    1
    22    11    33    1
    23    11    34    1
    24    12    13   am
    25    12    35    1
    26    13    14    2
    27    15    16    1
    28    16    25    1
    29    16    17    2
    30    17    18    1
    31    18    19    2
    32    18    20   am
    33    20    24    1
    34    20    21    1
    35    21    22    1
    36    21    36    1
    37    21    37    1
    38    22    23    1
    39    22    38    1
    40    22    39    1
    41    23    24    1
    42    23    40    1
    43    23    41    1
    44    24    25    2
@<TRIPOS>SUBSTRUCTURE
     1 ZINC000774689801        1 TEMP              0 ****  ****    0 ROOT


##########                                Name:    ZINC000050607728
##########                DOCK_Rotatable_Bonds:                  10
##########                         Heavy_Atoms:                  31
##########                    Molecular_Weight:             416.476
##########                DOCK_Rotatable_Bonds:                  10
##########                       Formal_Charge:          -0.0199995
##########                     HBond_Acceptors:                   6
##########                        HBond_Donors:                   1
##########                         Heavy_Atoms:                  31
##########                          Grid_Score:          -28.603760
##########                     Grid_vdw_energy:          -26.365669
##########                      Grid_es_energy:           -2.238090
##########           Internal_energy_repulsive:           12.529466

@<TRIPOS>MOLECULE
ZINC000050607728
 55 57 1 0 0
SMALL
USER_CHARGES


@<TRIPOS>ATOM
      1 C1        -10.9564    2.2351   61.8041 C.3     1  ZINC000050607728    0.0800
      2 N2        -11.9903    1.5656   62.5972 N.am    1  ZINC000050607728   -0.6200
      3 C3        -12.9529    2.3592   63.3652 C.3     1  ZINC000050607728    0.0700
      4 C4        -12.0560    0.2197   62.6204 C.2     1  ZINC000050607728    0.5600
      5 O5        -12.9138   -0.3358   63.2785 O.2     1  ZINC000050607728   -0.5300
      6 C6        -11.0846   -0.5813   61.8454 C.ar    1  ZINC000050607728   -0.1400
      7 C7         -9.7710   -0.7181   62.2962 C.ar    1  ZINC000050607728   -0.0800
      8 C8         -8.8695   -1.4674   61.5685 C.ar    1  ZINC000050607728   -0.1300
      9 C9         -9.2652   -2.0818   60.3939 C.ar    1  ZINC000050607728   -0.0700
     10 C10       -10.5660   -1.9497   59.9409 C.ar    1  ZINC000050607728   -0.1100
     11 C11       -10.9882   -2.6221   58.6600 C.3     1  ZINC000050607728    0.1100
     12 O12       -12.3280   -3.1598   58.8144 O.3     1  ZINC000050607728   -0.3400
     13 C13       -12.8770   -3.7461   57.7389 C.2     1  ZINC000050607728    0.4700
     14 O14       -12.2062   -3.9539   56.7557 O.2     1  ZINC000050607728   -0.5000
     15 C15       -14.3302   -4.1450   57.7577 C.3     1  ZINC000050607728    0.2000
     16 H16       -14.4279   -5.1415   58.1885 H       1  ZINC000050607728    0.1400
     17 N17       -15.0890   -3.1871   58.5658 N.am    1  ZINC000050607728   -0.7100
     18 C18       -16.2377   -3.5674   59.1595 C.2     1  ZINC000050607728    0.5700
     19 O19       -16.6432   -4.7054   59.0258 O.2     1  ZINC000050607728   -0.5200
     20 C20       -17.0044   -2.6002   59.9735 C.ar    1  ZINC000050607728   -0.1400
     21 C21       -18.2591   -2.9473   60.4771 C.ar    1  ZINC000050607728   -0.0800
     22 C22       -18.9691   -2.0403   61.2364 C.ar    1  ZINC000050607728   -0.1300
     23 C23       -18.4403   -0.7890   61.4987 C.ar    1  ZINC000050607728   -0.0900
     24 C24       -17.1973   -0.4386   61.0022 C.ar    1  ZINC000050607728   -0.1300
     25 C25       -16.4743   -1.3383   60.2467 C.ar    1  ZINC000050607728   -0.0600
     26 C26       -14.8677   -4.1515   56.3499 C.ar    1  ZINC000050607728   -0.1000
     27 C27       -14.8842   -5.3263   55.6218 C.ar    1  ZINC000050607728   -0.1000
     28 C28       -15.3773   -5.3322   54.3303 C.ar    1  ZINC000050607728   -0.1200
     29 C29       -15.8541   -4.1633   53.7672 C.ar    1  ZINC000050607728   -0.1100
     30 C30       -15.8383   -2.9885   54.4957 C.ar    1  ZINC000050607728   -0.1200
     31 C31       -15.3493   -2.9835   55.7886 C.ar    1  ZINC000050607728   -0.0800
     32 C32       -11.4788   -1.2086   60.6622 C.ar    1  ZINC000050607728   -0.0400
     33 H33       -10.0676    2.3841   62.4174 H       1  ZINC000050607728    0.0600
     34 H34       -10.7035    1.6180   60.9418 H       1  ZINC000050607728    0.0800
     35 H35       -11.3286    3.2010   61.4630 H       1  ZINC000050607728    0.0700
     36 H36       -13.7843    2.6451   62.7209 H       1  ZINC000050607728    0.0600
     37 H37       -13.3273    1.7675   64.2006 H       1  ZINC000050607728    0.0800
     38 H38       -12.4632    3.2557   63.7457 H       1  ZINC000050607728    0.0700
     39 H39        -9.4607   -0.2384   63.2128 H       1  ZINC000050607728    0.1400
     40 H40        -7.8526   -1.5741   61.9163 H       1  ZINC000050607728    0.1400
     41 H41        -8.5556   -2.6668   59.8277 H       1  ZINC000050607728    0.1300
     42 H42       -10.9797   -1.8950   57.8480 H       1  ZINC000050607728    0.0900
     43 H43       -10.2959   -3.4320   58.4297 H       1  ZINC000050607728    0.0900
     44 H44       -14.7648   -2.2793   58.6735 H       1  ZINC000050607728    0.4100
     45 H45       -18.6733   -3.9235   60.2725 H       1  ZINC000050607728    0.1300
     46 H46       -19.9400   -2.3075   61.6266 H       1  ZINC000050607728    0.1300
     47 H47       -19.0003   -0.0825   62.0934 H       1  ZINC000050607728    0.1300
     48 H48       -16.7903    0.5399   61.2102 H       1  ZINC000050607728    0.1300
     49 H49       -15.5040   -1.0637   59.8600 H       1  ZINC000050607728    0.1400
     50 H50       -14.5118   -6.2396   56.0617 H       1  ZINC000050607728    0.1200
     51 H51       -15.3897   -6.2500   53.7612 H       1  ZINC000050607728    0.1200
     52 H52       -16.2387   -4.1678   52.7580 H       1  ZINC000050607728    0.1200
     53 H53       -16.2106   -2.0751   54.0556 H       1  ZINC000050607728    0.1300
     54 H54       -15.3369   -2.0658   56.3577 H       1  ZINC000050607728    0.1300
     55 H55       -12.4939   -1.1066   60.3078 H       1  ZINC000050607728    0.1300
@<TRIPOS>BOND
     1     1     2    1
     2     1    33    1
     3     1    34    1
     4     1    35    1
     5     2     3    1
     6     2     4   am
     7     3    36    1
     8     3    37    1
     9     3    38    1
    10     4     5    2
    11     4     6    1
    12     6    32   ar
    13     6     7   ar
    14     7     8   ar
    15     7    39    1
    16     8     9   ar
    17     8    40    1
    18     9    10   ar
    19     9    41    1
    20    10    11    1
    21    10    32   ar
    22    11    12    1
    23    11    42    1
    24    11    43    1
    25    12    13    1
    26    13    14    2
    27    13    15    1
    28    15    16    1
    29    15    17    1
    30    15    26    1
    31    17    18   am
    32    17    44    1
    33    18    19    2
    34    18    20    1
    35    20    25   ar
    36    20    21   ar
    37    21    22   ar
    38    21    45    1
    39    22    23   ar
    40    22    46    1
    41    23    24   ar
    42    23    47    1
    43    24    25   ar
    44    24    48    1
    45    25    49    1
    46    26    31   ar
    47    26    27   ar
    48    27    28   ar
    49    27    50    1
    50    28    29   ar
    51    28    51    1
    52    29    30   ar
    53    29    52    1
    54    30    31   ar
    55    30    53    1
    56    31    54    1
    57    32    55    1
@<TRIPOS>SUBSTRUCTURE
     1 ZINC000050607728        1 TEMP              0 ****  ****    0 ROOT


##########                                Name:    ZINC001312809190
##########                DOCK_Rotatable_Bonds:                   6
##########                         Heavy_Atoms:                  29
##########                    Molecular_Weight:             395.501
##########                DOCK_Rotatable_Bonds:                   6
##########                       Formal_Charge:           0.0199995
##########                     HBond_Acceptors:                   6
##########                        HBond_Donors:                   1
##########                         Heavy_Atoms:                  29
##########                          Grid_Score:          -28.582909
##########                     Grid_vdw_energy:          -28.414734
##########                      Grid_es_energy:           -0.168175
##########           Internal_energy_repulsive:           30.796719

@<TRIPOS>MOLECULE
ZINC001312809190
 58 61 1 0 0
SMALL
USER_CHARGES


@<TRIPOS>ATOM
      1 C1         -6.3533    0.2312   50.6934 C.3     1  ZINC001312809190    0.0300
      2 O2         -6.4764    0.8716   51.9649 O.3     1  ZINC001312809190   -0.3200
      3 C3         -7.5805    0.5762   52.7001 C.ar    1  ZINC001312809190    0.1300
      4 C4         -8.5228   -0.3163   52.2107 C.ar    1  ZINC001312809190   -0.2100
      5 C5         -9.6442   -0.6153   52.9603 C.ar    1  ZINC001312809190   -0.0800
      6 C6         -9.8279   -0.0254   54.1969 C.ar    1  ZINC001312809190   -0.1300
      7 C7         -8.8902    0.8651   54.6869 C.ar    1  ZINC001312809190   -0.0500
      8 C8         -9.0938    1.5067   56.0353 C.3     1  ZINC001312809190    0.1200
      9 H9         -9.3821    2.5493   55.9017 H       1  ZINC001312809190    0.0500
     10 C10        -7.7917    1.4361   56.8355 C.3     1  ZINC001312809190   -0.1400
     11 N11       -10.1540    0.7947   56.7613 N.3     1  ZINC001312809190   -0.5300
     12 C12       -10.7091    1.6298   57.8348 C.3     1  ZINC001312809190    0.0300
     13 C13       -11.9258    0.9273   58.4467 C.3     1  ZINC001312809190    0.1400
     14 N14       -11.5260   -0.4276   58.8562 N.am    1  ZINC001312809190   -0.6300
     15 C15       -11.7833   -0.8784   60.1000 C.2     1  ZINC001312809190    0.7100
     16 O16       -11.4456   -2.0013   60.4216 O.2     1  ZINC001312809190   -0.5800
     17 N17       -12.4149   -0.0845   60.9874 N.am    1  ZINC001312809190   -0.7300
     18 C18       -12.6945   -0.5746   62.3392 C.3     1  ZINC001312809190    0.1800
     19 H19       -12.8535   -1.6530   62.3355 H       1  ZINC001312809190    0.1200
     20 C20       -11.5802   -0.1944   63.2950 C.ar    1  ZINC001312809190   -0.1900
     21 C21       -10.2092   -0.2750   63.1955 C.ar    1  ZINC001312809190   -0.0500
     22 C22        -9.4134    0.1611   64.2403 C.ar    1  ZINC001312809190   -0.1500
     23 C23        -9.9998    0.6765   65.3811 C.ar    1  ZINC001312809190   -0.0800
     24 C24       -11.3734    0.7549   65.4843 C.ar    1  ZINC001312809190   -0.1400
     25 C25       -12.1814    0.3152   64.4390 C.ar    1  ZINC001312809190    0.1100
     26 O26       -13.5387    0.2838   64.3382 O.3     1  ZINC001312809190   -0.2900
     27 C27       -13.9089    0.1610   62.9538 C.3     1  ZINC001312809190    0.0800
     28 H28       -14.0353    1.1436   62.4992 H       1  ZINC001312809190    0.0900
     29 C29       -15.1846   -0.6705   62.8056 C.3     1  ZINC001312809190   -0.1500
     30 C30       -10.8384   -1.2776   57.8723 C.3     1  ZINC001312809190    0.1200
     31 C31        -9.6646   -0.4883   57.2831 C.3     1  ZINC001312809190    0.0400
     32 C32        -7.7643    1.1626   53.9441 C.ar    1  ZINC001312809190   -0.1500
     33 H33        -5.4300    0.5537   50.2121 H       1  ZINC001312809190    0.1000
     34 H34        -6.3326   -0.8498   50.8315 H       1  ZINC001312809190    0.0600
     35 H35        -7.2032    0.5013   50.0668 H       1  ZINC001312809190    0.0600
     36 H36        -8.3802   -0.7768   51.2442 H       1  ZINC001312809190    0.1300
     37 H37       -10.3781   -1.3102   52.5796 H       1  ZINC001312809190    0.1300
     38 H38       -10.7053   -0.2602   54.7813 H       1  ZINC001312809190    0.1300
     39 H39        -7.5034    0.3933   56.9692 H       1  ZINC001312809190    0.0700
     40 H40        -7.0050    1.9643   56.2969 H       1  ZINC001312809190    0.0600
     41 H41        -7.9390    1.9001   57.8108 H       1  ZINC001312809190    0.0600
     42 H42        -9.9525    1.7831   58.6045 H       1  ZINC001312809190    0.0400
     43 H43       -11.0129    2.5934   57.4259 H       1  ZINC001312809190    0.1000
     44 H44       -12.2719    1.4857   59.3164 H       1  ZINC001312809190    0.1000
     45 H45       -12.7235    0.8657   57.7064 H       1  ZINC001312809190    0.0700
     46 H46       -12.6842    0.8114   60.7308 H       1  ZINC001312809190    0.4000
     47 H47        -9.7552   -0.6787   62.3026 H       1  ZINC001312809190    0.1200
     48 H48        -8.3378    0.0987   64.1648 H       1  ZINC001312809190    0.1300
     49 H49        -9.3795    1.0193   66.1960 H       1  ZINC001312809190    0.1300
     50 H50       -11.8236    1.1585   66.3792 H       1  ZINC001312809190    0.1300
     51 H51       -16.0045   -0.1736   63.3242 H       1  ZINC001312809190    0.0800
     52 H52       -15.4315   -0.7720   61.7488 H       1  ZINC001312809190    0.0800
     53 H53       -15.0268   -1.6585   63.2384 H       1  ZINC001312809190    0.0700
     54 H54       -10.4657   -2.1769   58.3625 H       1  ZINC001312809190    0.0800
     55 H55       -11.5317   -1.5511   57.0769 H       1  ZINC001312809190    0.0800
     56 H56        -9.2109   -1.0608   56.4741 H       1  ZINC001312809190    0.0900
     57 H57        -8.9226   -0.3055   58.0604 H       1  ZINC001312809190    0.0400
     58 H58        -7.0322    1.8579   54.3274 H       1  ZINC001312809190    0.1300
@<TRIPOS>BOND
     1     1     2    1
     2     1    33    1
     3     1    34    1
     4     1    35    1
     5     2     3    1
     6     3    32   ar
     7     3     4   ar
     8     4     5   ar
     9     4    36    1
    10     5     6   ar
    11     5    37    1
    12     6     7   ar
    13     6    38    1
    14     7     8    1
    15     7    32   ar
    16     8     9    1
    17     8    10    1
    18     8    11    1
    19    10    39    1
    20    10    40    1
    21    10    41    1
    22    11    31    1
    23    11    12    1
    24    12    13    1
    25    12    42    1
    26    12    43    1
    27    13    14    1
    28    13    44    1
    29    13    45    1
    30    14    15   am
    31    14    30    1
    32    15    16    2
    33    15    17   am
    34    17    18    1
    35    17    46    1
    36    18    19    1
    37    18    27    1
    38    18    20    1
    39    20    25   ar
    40    20    21   ar
    41    21    22   ar
    42    21    47    1
    43    22    23   ar
    44    22    48    1
    45    23    24   ar
    46    23    49    1
    47    24    25   ar
    48    24    50    1
    49    25    26    1
    50    26    27    1
    51    27    28    1
    52    27    29    1
    53    29    51    1
    54    29    52    1
    55    29    53    1
    56    30    31    1
    57    30    54    1
    58    30    55    1
    59    31    56    1
    60    31    57    1
    61    32    58    1
@<TRIPOS>SUBSTRUCTURE
     1 ZINC001312809190        1 TEMP              0 ****  ****    0 ROOT


##########                                Name:    ZINC000062882109
##########                DOCK_Rotatable_Bonds:                   8
##########                         Heavy_Atoms:                  31
##########                    Molecular_Weight:             424.497
##########                DOCK_Rotatable_Bonds:                   8
##########                       Formal_Charge:           0.0299993
##########                     HBond_Acceptors:                   7
##########                        HBond_Donors:                   1
##########                         Heavy_Atoms:                  31
##########                          Grid_Score:          -28.580845
##########                     Grid_vdw_energy:          -27.825020
##########                      Grid_es_energy:           -0.755825
##########           Internal_energy_repulsive:          192.554626

@<TRIPOS>MOLECULE
ZINC000062882109
 59 61 1 0 0
SMALL
USER_CHARGES


@<TRIPOS>ATOM
      1 C1        -19.7359   -6.7675   49.9132 C.3     1  ZINC000062882109   -0.2000
      2 C2        -19.5560   -6.2263   51.3081 C.2     1  ZINC000062882109    0.3900
      3 O3        -20.5258   -5.9408   51.9775 O.2     1  ZINC000062882109   -0.4500
      4 C4        -18.2028   -6.0443   51.8580 C.ar    1  ZINC000062882109   -0.1300
      5 C5        -17.0822   -6.3737   51.0890 C.ar    1  ZINC000062882109   -0.1100
      6 C6        -15.8161   -6.2015   51.6085 C.ar    1  ZINC000062882109   -0.0900
      7 C7        -15.6502   -5.7039   52.8881 C.ar    1  ZINC000062882109   -0.1800
      8 C8        -16.7565   -5.3739   53.6604 C.ar    1  ZINC000062882109    0.1200
      9 O9        -16.5858   -4.8853   54.9172 O.3     1  ZINC000062882109   -0.2800
     10 C10       -15.2417   -4.7433   55.3810 C.3     1  ZINC000062882109    0.0700
     11 H11       -14.6163   -4.3649   54.5724 H       1  ZINC000062882109    0.1000
     12 C12       -14.7140   -6.1042   55.8397 C.3     1  ZINC000062882109   -0.1800
     13 C13       -15.2086   -3.7763   56.5365 C.2     1  ZINC000062882109    0.5200
     14 O14       -14.9229   -2.6131   56.3459 O.2     1  ZINC000062882109   -0.4900
     15 N15       -15.4964   -4.2043   57.7817 N.am    1  ZINC000062882109   -0.6600
     16 C16       -15.4656   -3.3054   58.8559 C.ar    1  ZINC000062882109    0.1400
     17 C17       -16.6410   -2.9661   59.5121 C.ar    1  ZINC000062882109   -0.1000
     18 C18       -16.6151   -2.0786   60.5709 C.ar    1  ZINC000062882109   -0.1100
     19 C19       -15.4139   -1.5218   60.9836 C.ar    1  ZINC000062882109    0.0800
     20 O20       -15.4027   -0.6429   62.0214 O.3     1  ZINC000062882109   -0.3100
     21 C21       -14.1628   -0.4296   62.7000 C.3     1  ZINC000062882109    0.0500
     22 C22       -13.0705   -0.1486   61.6584 C.3     1  ZINC000062882109    0.0400
     23 N23       -13.0151   -1.3053   60.7483 N.am    1  ZINC000062882109   -0.5500
     24 C24       -11.8364   -1.8103   60.3333 C.2     1  ZINC000062882109    0.5300
     25 O25       -11.8153   -2.7635   59.5836 O.2     1  ZINC000062882109   -0.5100
     26 C26       -10.5447   -1.1904   60.8007 C.3     1  ZINC000062882109   -0.0800
     27 C27        -9.3710   -1.8448   60.0692 C.3     1  ZINC000062882109   -0.1300
     28 C28       -10.5607    0.3096   60.4998 C.3     1  ZINC000062882109   -0.1600
     29 C29       -10.3912   -1.4067   62.3075 C.3     1  ZINC000062882109   -0.1500
     30 C30       -14.2340   -1.8648   60.3279 C.ar    1  ZINC000062882109    0.1000
     31 C31       -14.2586   -2.7570   59.2693 C.ar    1  ZINC000062882109   -0.1400
     32 C32       -18.0321   -5.5359   53.1490 C.ar    1  ZINC000062882109   -0.0900
     33 H33       -20.7994   -6.8315   49.6828 H       1  ZINC000062882109    0.0900
     34 H34       -19.2491   -6.1025   49.1998 H       1  ZINC000062882109    0.1000
     35 H35       -19.2896   -7.7598   49.8481 H       1  ZINC000062882109    0.1000
     36 H36       -17.2080   -6.7630   50.0895 H       1  ZINC000062882109    0.1400
     37 H37       -14.9513   -6.4566   51.0142 H       1  ZINC000062882109    0.1300
     38 H38       -14.6561   -5.5714   53.2887 H       1  ZINC000062882109    0.1300
     39 H39       -14.7380   -6.8036   55.0039 H       1  ZINC000062882109    0.0800
     40 H40       -13.6887   -5.9959   56.1934 H       1  ZINC000062882109    0.0800
     41 H41       -15.3393   -6.4827   56.6482 H       1  ZINC000062882109    0.0800
     42 H42       -15.7248   -5.1346   57.9341 H       1  ZINC000062882109    0.4100
     43 H43       -17.5787   -3.3970   59.1939 H       1  ZINC000062882109    0.1400
     44 H44       -17.5323   -1.8176   61.0778 H       1  ZINC000062882109    0.1400
     45 H45       -14.2559    0.4241   63.3712 H       1  ZINC000062882109    0.1300
     46 H46       -13.9016   -1.3198   63.2721 H       1  ZINC000062882109    0.0700
     47 H47       -13.3178    0.7524   61.0969 H       1  ZINC000062882109    0.0900
     48 H48       -12.1086   -0.0229   62.1558 H       1  ZINC000062882109    0.1300
     49 H49        -9.4804   -1.6907   58.9958 H       1  ZINC000062882109    0.0600
     50 H50        -8.4367   -1.3964   60.4073 H       1  ZINC000062882109    0.0700
     51 H51        -9.3596   -2.9134   60.2836 H       1  ZINC000062882109    0.0700
     52 H52       -11.3968    0.7759   61.0208 H       1  ZINC000062882109    0.0700
     53 H53        -9.6265    0.7580   60.8378 H       1  ZINC000062882109    0.0800
     54 H54       -10.6701    0.4637   59.4263 H       1  ZINC000062882109    0.0600
     55 H55       -10.1813   -2.4581   62.5041 H       1  ZINC000062882109    0.0700
     56 H56        -9.5688   -0.7962   62.6802 H       1  ZINC000062882109    0.0800
     57 H57       -11.3141   -1.1199   62.8116 H       1  ZINC000062882109    0.0700
     58 H58       -13.3420   -3.0223   58.7634 H       1  ZINC000062882109    0.1800
     59 H59       -18.8930   -5.2792   53.7486 H       1  ZINC000062882109    0.1400
@<TRIPOS>BOND
     1     1     2    1
     2     1    33    1
     3     1    34    1
     4     1    35    1
     5     2     3    2
     6     2     4    1
     7     4    32   ar
     8     4     5   ar
     9     5     6   ar
    10     5    36    1
    11     6     7   ar
    12     6    37    1
    13     7     8   ar
    14     7    38    1
    15     8     9    1
    16     8    32   ar
    17     9    10    1
    18    10    11    1
    19    10    12    1
    20    10    13    1
    21    12    39    1
    22    12    40    1
    23    12    41    1
    24    13    14    2
    25    13    15   am
    26    15    16    1
    27    15    42    1
    28    16    31   ar
    29    16    17   ar
    30    17    18   ar
    31    17    43    1
    32    18    19   ar
    33    18    44    1
    34    19    30   ar
    35    19    20    1
    36    20    21    1
    37    21    22    1
    38    21    45    1
    39    21    46    1
    40    22    23    1
    41    22    47    1
    42    22    48    1
    43    23    24   am
    44    23    30    1
    45    24    25    2
    46    24    26    1
    47    26    27    1
    48    26    28    1
    49    26    29    1
    50    27    49    1
    51    27    50    1
    52    27    51    1
    53    28    52    1
    54    28    53    1
    55    28    54    1
    56    29    55    1
    57    29    56    1
    58    29    57    1
    59    30    31   ar
    60    31    58    1
    61    32    59    1
@<TRIPOS>SUBSTRUCTURE
     1 ZINC000062882109        1 TEMP              0 ****  ****    0 ROOT


##########                                Name:    ZINC000444811358
##########                DOCK_Rotatable_Bonds:                  11
##########                         Heavy_Atoms:                  27
##########                    Molecular_Weight:             374.455
##########                DOCK_Rotatable_Bonds:                  11
##########                       Formal_Charge:          0.00999966
##########                     HBond_Acceptors:                   6
##########                        HBond_Donors:                   2
##########                         Heavy_Atoms:                  27
##########                          Grid_Score:          -28.580578
##########                     Grid_vdw_energy:          -28.149925
##########                      Grid_es_energy:           -0.430652
##########           Internal_energy_repulsive:           25.746677

@<TRIPOS>MOLECULE
ZINC000444811358
 54 55 1 0 0
SMALL
USER_CHARGES


@<TRIPOS>ATOM
      1 C1        -15.8298   -5.9774   53.3624 C.3     1  ZINC000444811358   -0.1100
      2 C2        -15.3190   -5.3004   54.6080 C.ar    1  ZINC000444811358   -0.1300
      3 C3        -15.2926   -3.9204   54.6817 C.ar    1  ZINC000444811358   -0.0700
      4 C4        -14.8245   -3.2964   55.8220 C.ar    1  ZINC000444811358   -0.1500
      5 C5        -14.3803   -4.0562   56.8961 C.ar    1  ZINC000444811358    0.1700
      6 N6        -13.9064   -3.4259   58.0519 N.am    1  ZINC000444811358   -0.6800
      7 C7        -12.5860   -3.2020   58.2041 C.2     1  ZINC000444811358    0.5200
      8 O8        -11.8087   -3.5469   57.3393 O.2     1  ZINC000444811358   -0.5000
      9 C9        -12.0756   -2.5231   59.4490 C.3     1  ZINC000444811358    0.0200
     10 N10       -11.0203   -1.5671   59.0876 N.3     1  ZINC000444811358   -0.5000
     11 C11       -11.5857   -0.3854   58.4229 C.3     1  ZINC000444811358    0.0200
     12 C12       -10.7634   -0.0605   57.1742 C.3     1  ZINC000444811358    0.1100
     13 H13       -10.3815    0.9578   57.2455 H       1  ZINC000444811358    0.1200
     14 O14        -9.6690   -0.9738   57.0737 O.3     1  ZINC000444811358   -0.5400
     15 C15       -11.6492   -0.1873   55.9330 C.3     1  ZINC000444811358    0.0300
     16 O16       -10.9440   -0.9012   54.9156 O.3     1  ZINC000444811358   -0.3000
     17 C17       -10.0997   -0.1825   54.1300 C.ar    1  ZINC000444811358    0.1300
     18 C18        -9.5049   -0.7747   53.0253 C.ar    1  ZINC000444811358   -0.2100
     19 C19        -8.6474   -0.0418   52.2280 C.ar    1  ZINC000444811358   -0.0800
     20 C20        -8.3814    1.2810   52.5303 C.ar    1  ZINC000444811358   -0.1600
     21 C21        -8.9725    1.8735   53.6308 C.ar    1  ZINC000444811358   -0.0800
     22 C22        -9.8356    1.1466   54.4278 C.ar    1  ZINC000444811358   -0.1500
     23 C23       -10.2330   -1.1817   60.2664 C.3     1  ZINC000444811358    0.0700
     24 C24       -11.1635   -1.0180   61.4700 C.3     1  ZINC000444811358   -0.1400
     25 C25        -9.1981   -2.2681   60.5659 C.3     1  ZINC000444811358   -0.1900
     26 C26       -14.4076   -5.4425   56.8213 C.ar    1  ZINC000444811358   -0.1500
     27 C27       -14.8821   -6.0622   55.6794 C.ar    1  ZINC000444811358    0.1200
     28 F28       -14.9094   -7.4108   55.6048 F       1  ZINC000444811358   -0.1300
     29 H29       -16.9040   -6.1391   53.4512 H       1  ZINC000444811358    0.0700
     30 H30       -15.6276   -5.3464   52.4969 H       1  ZINC000444811358    0.0700
     31 H31       -15.3272   -6.9366   53.2380 H       1  ZINC000444811358    0.0700
     32 H32       -15.6380   -3.3291   53.8466 H       1  ZINC000444811358    0.1400
     33 H33       -14.8039   -2.2181   55.8778 H       1  ZINC000444811358    0.1300
     34 H34       -14.5279   -3.1501   58.7435 H       1  ZINC000444811358    0.4100
     35 H35       -12.8945   -1.9934   59.9357 H       1  ZINC000444811358    0.1300
     36 H36       -11.6704   -3.2710   60.1306 H       1  ZINC000444811358    0.0700
     37 H37       -12.6174   -0.5888   58.1358 H       1  ZINC000444811358    0.0500
     38 H38       -11.5593    0.4633   59.1063 H       1  ZINC000444811358    0.1000
     39 H39        -9.7218   -1.7200   57.6866 H       1  ZINC000444811358    0.3700
     40 H40       -12.5604   -0.7270   56.1905 H       1  ZINC000444811358    0.0600
     41 H41       -11.9067    0.8068   55.5674 H       1  ZINC000444811358    0.0700
     42 H42        -9.7118   -1.8081   52.7892 H       1  ZINC000444811358    0.1300
     43 H43        -8.1841   -0.5023   51.3680 H       1  ZINC000444811358    0.1200
     44 H44        -7.7104    1.8523   51.9058 H       1  ZINC000444811358    0.1200
     45 H45        -8.7629    2.9068   53.8650 H       1  ZINC000444811358    0.1300
     46 H46       -10.2971    1.6098   55.2873 H       1  ZINC000444811358    0.1300
     47 H47        -9.7232   -0.2384   60.0703 H       1  ZINC000444811358    0.0900
     48 H48       -11.5715   -1.9896   61.7485 H       1  ZINC000444811358    0.0500
     49 H49       -10.6031   -0.6052   62.3088 H       1  ZINC000444811358    0.0600
     50 H50       -11.9785   -0.3426   61.2099 H       1  ZINC000444811358    0.0700
     51 H51        -8.5352   -2.3848   59.7086 H       1  ZINC000444811358    0.0500
     52 H52        -8.6139   -1.9821   61.4406 H       1  ZINC000444811358    0.0700
     53 H53        -9.7078   -3.2114   60.7621 H       1  ZINC000444811358    0.0600
     54 H54       -14.0624   -6.0359   57.6550 H       1  ZINC000444811358    0.1500
@<TRIPOS>BOND
     1     1     2    1
     2     1    29    1
     3     1    30    1
     4     1    31    1
     5     2    27   ar
     6     2     3   ar
     7     3     4   ar
     8     3    32    1
     9     4     5   ar
    10     4    33    1
    11     5     6    1
    12     5    26   ar
    13     6     7   am
    14     6    34    1
    15     7     8    2
    16     7     9    1
    17     9    10    1
    18     9    35    1
    19     9    36    1
    20    10    11    1
    21    10    23    1
    22    11    12    1
    23    11    37    1
    24    11    38    1
    25    12    13    1
    26    12    14    1
    27    12    15    1
    28    14    39    1
    29    15    16    1
    30    15    40    1
    31    15    41    1
    32    16    17    1
    33    17    22   ar
    34    17    18   ar
    35    18    19   ar
    36    18    42    1
    37    19    20   ar
    38    19    43    1
    39    20    21   ar
    40    20    44    1
    41    21    22   ar
    42    21    45    1
    43    22    46    1
    44    23    24    1
    45    23    25    1
    46    23    47    1
    47    24    48    1
    48    24    49    1
    49    24    50    1
    50    25    51    1
    51    25    52    1
    52    25    53    1
    53    26    27   ar
    54    26    54    1
    55    27    28    1
@<TRIPOS>SUBSTRUCTURE
     1 ZINC000444811358        1 TEMP              0 ****  ****    0 ROOT


##########                                Name:    ZINC000563265674
##########                DOCK_Rotatable_Bonds:                   7
##########                         Heavy_Atoms:                  25
##########                    Molecular_Weight:             386.859
##########                DOCK_Rotatable_Bonds:                   7
##########                       Formal_Charge:          0.00999963
##########                     HBond_Acceptors:                  10
##########                        HBond_Donors:                   2
##########                         Heavy_Atoms:                  25
##########                          Grid_Score:          -28.570480
##########                     Grid_vdw_energy:          -26.644682
##########                      Grid_es_energy:           -1.925799
##########           Internal_energy_repulsive:           15.428025

@<TRIPOS>MOLECULE
ZINC000563265674
 44 45 1 0 0
SMALL
USER_CHARGES


@<TRIPOS>ATOM
      1 C1        -10.1397   -0.9337   57.0457 C.3     1  ZINC000563265674   -0.0600
      2 C2         -9.4772   -0.0611   56.0109 C.2     1  ZINC000563265674    0.1700
      3 N3         -8.5238    0.7958   56.2241 N.2     1  ZINC000563265674   -0.3800
      4 O4         -8.2077    1.3387   55.1864 O.3     1  ZINC000563265674    0.0900
      5 C5         -8.9520    0.8654   54.1824 C.2     1  ZINC000563265674    0.1900
      6 C6         -8.8737    1.2781   52.7351 C.3     1  ZINC000563265674    0.2100
      7 C7        -10.2826    1.3213   52.1402 C.3     1  ZINC000563265674   -0.1400
      8 C8         -8.2347    2.6645   52.6340 C.3     1  ZINC000563265674   -0.1800
      9 N9         -8.0582    0.3077   51.9927 N.3     1  ZINC000563265674   -0.6600
     10 C10        -6.7068    0.2120   52.5605 C.3     1  ZINC000563265674    0.0400
     11 C11        -5.7263    0.8941   51.6416 C.2     1  ZINC000563265674    0.5200
     12 O12        -5.8016    0.7269   50.4426 O.2     1  ZINC000563265674   -0.4900
     13 N13        -4.7658    1.6898   52.1520 N.am    1  ZINC000563265674   -0.6700
     14 C14        -3.8550    2.3235   51.2984 C.ar    1  ZINC000563265674    0.1400
     15 C15        -3.1020    1.5741   50.4050 C.ar    1  ZINC000563265674   -0.0300
     16 C16        -2.2042    2.2023   49.5635 C.ar    1  ZINC000563265674   -0.6400
     17 S17        -1.2484    1.2515   48.4289 S.o2    1  ZINC000563265674    2.5000
     18 C18         0.4509    1.3792   49.0507 C.3     1  ZINC000563265674   -0.6500
     19 O19        -1.7376   -0.0737   48.5830 O.2     1  ZINC000563265674   -0.9300
     20 O20        -1.3808    1.9424   47.1943 O.2     1  ZINC000563265674   -0.9300
     21 C21        -2.0550    3.5760   49.6100 C.ar    1  ZINC000563265674   -0.0300
     22 C22        -2.8031    4.3262   50.4990 C.ar    1  ZINC000563265674   -0.1100
     23 C23        -3.7069    3.7049   51.3396 C.ar    1  ZINC000563265674   -0.0200
     24 Cl24       -4.6462    4.6469   52.4549 Cl      1  ZINC000563265674   -0.0500
     25 N25        -9.7602   -0.0302   54.6965 N.2     1  ZINC000563265674   -0.4700
     26 H26        -9.5980   -1.8761   57.1269 H       1  ZINC000563265674    0.0900
     27 H27       -10.1306   -0.4251   58.0097 H       1  ZINC000563265674    0.0900
     28 H28       -11.1698   -1.1313   56.7487 H       1  ZINC000563265674    0.0900
     29 H29       -10.8877    2.0413   52.6911 H       1  ZINC000563265674    0.0800
     30 H30       -10.2260    1.6198   51.0934 H       1  ZINC000563265674    0.0800
     31 H31       -10.7379    0.3336   52.2123 H       1  ZINC000563265674    0.0700
     32 H32        -7.2309    2.6338   53.0578 H       1  ZINC000563265674    0.0700
     33 H33        -8.1781    2.9630   51.5872 H       1  ZINC000563265674    0.0800
     34 H34        -8.8397    3.3846   53.1849 H       1  ZINC000563265674    0.0800
     35 H35        -8.5051   -0.5967   51.9685 H       1  ZINC000563265674    0.3600
     36 H36        -6.6876    0.6968   53.5366 H       1  ZINC000563265674    0.1200
     37 H37        -6.4323   -0.8371   52.6706 H       1  ZINC000563265674    0.0800
     38 H38        -4.7056    1.8236   53.1108 H       1  ZINC000563265674    0.4200
     39 H39        -3.2174    0.5010   50.3680 H       1  ZINC000563265674    0.1700
     40 H40         0.4991    0.9751   50.0619 H       1  ZINC000563265674    0.1300
     41 H41         1.1189    0.8135   48.4012 H       1  ZINC000563265674    0.1400
     42 H42         0.7558    2.4256   49.0627 H       1  ZINC000563265674    0.1400
     43 H43        -1.3524    4.0642   48.9510 H       1  ZINC000563265674    0.1500
     44 H44        -2.6839    5.3991   50.5332 H       1  ZINC000563265674    0.1500
@<TRIPOS>BOND
     1     1     2    1
     2     1    26    1
     3     1    27    1
     4     1    28    1
     5     2    25    1
     6     2     3    2
     7     3     4    1
     8     4     5    1
     9     5     6    1
    10     5    25    2
    11     6     7    1
    12     6     8    1
    13     6     9    1
    14     7    29    1
    15     7    30    1
    16     7    31    1
    17     8    32    1
    18     8    33    1
    19     8    34    1
    20     9    10    1
    21     9    35    1
    22    10    11    1
    23    10    36    1
    24    10    37    1
    25    11    12    2
    26    11    13   am
    27    13    14    1
    28    13    38    1
    29    14    23   ar
    30    14    15   ar
    31    15    16   ar
    32    15    39    1
    33    16    17    1
    34    16    21   ar
    35    17    18    1
    36    17    19    2
    37    17    20    2
    38    18    40    1
    39    18    41    1
    40    18    42    1
    41    21    22   ar
    42    21    43    1
    43    22    23   ar
    44    22    44    1
    45    23    24    1
@<TRIPOS>SUBSTRUCTURE
     1 ZINC000563265674        1 TEMP              0 ****  ****    0 ROOT


##########                                Name:    ZINC000962855438
##########                DOCK_Rotatable_Bonds:                   7
##########                         Heavy_Atoms:                  27
##########                    Molecular_Weight:             370.448
##########                DOCK_Rotatable_Bonds:                   7
##########                       Formal_Charge:           0.0300005
##########                     HBond_Acceptors:                   6
##########                        HBond_Donors:                   2
##########                         Heavy_Atoms:                  27
##########                          Grid_Score:          -28.566797
##########                     Grid_vdw_energy:          -26.777752
##########                      Grid_es_energy:           -1.789046
##########           Internal_energy_repulsive:           69.513023

@<TRIPOS>MOLECULE
ZINC000962855438
 53 56 1 0 0
SMALL
USER_CHARGES


@<TRIPOS>ATOM
      1 C1        -10.0923   -0.0663   63.1430 C.3     1  ZINC000962855438   -0.1100
      2 C2        -11.3010   -0.3129   62.2774 C.2     1  ZINC000962855438   -0.1700
      3 C3        -11.1546   -1.0125   60.9918 C.2     1  ZINC000962855438    0.5600
      4 O4        -12.1326   -1.4753   60.4364 O.2     1  ZINC000962855438   -0.5400
      5 N5         -9.9365   -1.1407   60.4292 N.am    1  ZINC000962855438   -0.7100
      6 C6         -9.7904   -1.8390   59.1496 C.3     1  ZINC000962855438    0.1500
      7 H7         -8.7871   -1.7039   58.7457 H       1  ZINC000962855438    0.1200
      8 C8        -10.8647   -1.3716   58.1363 C.3     1  ZINC000962855438    0.1000
      9 N9        -11.0142   -2.4989   57.1980 N.am    1  ZINC000962855438   -0.6100
     10 C10       -11.4628   -2.4113   55.9301 C.2     1  ZINC000962855438    0.5800
     11 O11       -11.5444   -3.4116   55.2437 O.2     1  ZINC000962855438   -0.5200
     12 C12       -11.8548   -1.1017   55.3751 C.ar    1  ZINC000962855438   -0.1500
     13 C13       -13.0238   -0.4792   55.8127 C.ar    1  ZINC000962855438   -0.0600
     14 C14       -13.3930    0.7439   55.2954 C.ar    1  ZINC000962855438   -0.1500
     15 C15       -12.6035    1.3564   54.3350 C.ar    1  ZINC000962855438   -0.0500
     16 C16       -11.4489    0.7493   53.8938 C.ar    1  ZINC000962855438   -0.1800
     17 C17       -11.0471   -0.4762   54.4080 C.ar    1  ZINC000962855438    0.1600
     18 O18        -9.8751   -0.8835   53.8545 O.3     1  ZINC000962855438   -0.2800
     19 C19        -9.6578   -0.1699   52.6254 C.3     1  ZINC000962855438    0.0700
     20 H20       -10.0863   -0.7126   51.7828 H       1  ZINC000962855438    0.0900
     21 C21        -8.1655    0.0833   52.4020 C.3     1  ZINC000962855438   -0.1500
     22 C22       -10.4111    1.1615   52.8673 C.3     1  ZINC000962855438   -0.1100
     23 C23       -10.5921   -3.7342   57.8742 C.3     1  ZINC000962855438    0.0700
     24 C24       -10.1330   -3.3452   59.2958 C.3     1  ZINC000962855438    0.0900
     25 H25        -9.2509   -3.9160   59.5859 H       1  ZINC000962855438    0.0900
     26 O26       -11.1897   -3.5371   60.2385 O.3     1  ZINC000962855438   -0.5600
     27 C27       -12.5001    0.1018   62.6760 C.2     1  ZINC000962855438   -0.0600
     28 C28       -13.0623    0.8338   63.8762 C.3     1  ZINC000962855438   -0.1000
     29 C29       -14.4009    0.1366   63.5868 C.3     1  ZINC000962855438   -0.1400
     30 C30       -13.9112    0.0586   62.1291 C.3     1  ZINC000962855438   -0.1100
     31 H31        -9.6466    0.8930   62.8797 H       1  ZINC000962855438    0.0700
     32 H32       -10.3927   -0.0520   64.1908 H       1  ZINC000962855438    0.0700
     33 H33        -9.3636   -0.8613   62.9846 H       1  ZINC000962855438    0.0700
     34 H34        -9.1567   -0.7706   60.8716 H       1  ZINC000962855438    0.4100
     35 H35       -11.8076   -1.1751   58.6465 H       1  ZINC000962855438    0.0800
     36 H36       -10.5256   -0.4807   57.6077 H       1  ZINC000962855438    0.0900
     37 H37       -13.6415   -0.9570   56.5587 H       1  ZINC000962855438    0.1400
     38 H38       -14.2974    1.2246   55.6381 H       1  ZINC000962855438    0.1400
     39 H39       -12.8953    2.3142   53.9304 H       1  ZINC000962855438    0.1300
     40 H40        -7.6423   -0.8699   52.3275 H       1  ZINC000962855438    0.0700
     41 H41        -8.0268    0.6470   51.4794 H       1  ZINC000962855438    0.0800
     42 H42        -7.7644    0.6536   53.2398 H       1  ZINC000962855438    0.0700
     43 H43       -10.8903    1.5097   51.9525 H       1  ZINC000962855438    0.1000
     44 H44        -9.7401    1.9215   53.2677 H       1  ZINC000962855438    0.1000
     45 H45       -11.4292   -4.4299   57.9319 H       1  ZINC000962855438    0.0800
     46 H46        -9.7651   -4.1906   57.3302 H       1  ZINC000962855438    0.0800
     47 H47       -10.9850   -3.2200   61.1287 H       1  ZINC000962855438    0.3900
     48 H48       -12.6099    0.5330   64.8212 H       1  ZINC000962855438    0.0900
     49 H49       -13.0982    1.9157   63.7493 H       1  ZINC000962855438    0.1000
     50 H50       -14.5063   -0.8334   64.0726 H       1  ZINC000962855438    0.0900
     51 H51       -15.2706    0.7795   63.7228 H       1  ZINC000962855438    0.0800
     52 H52       -14.1786    0.9308   61.5324 H       1  ZINC000962855438    0.1000
     53 H53       -14.1565   -0.8825   61.6369 H       1  ZINC000962855438    0.0800
@<TRIPOS>BOND
     1     1     2    1
     2     1    31    1
     3     1    32    1
     4     1    33    1
     5     2     3    1
     6     2    27    2
     7     3     4    2
     8     3     5   am
     9     5     6    1
    10     5    34    1
    11     6     7    1
    12     6    24    1
    13     6     8    1
    14     8     9    1
    15     8    35    1
    16     8    36    1
    17     9    10   am
    18     9    23    1
    19    10    11    2
    20    10    12    1
    21    12    17   ar
    22    12    13   ar
    23    13    14   ar
    24    13    37    1
    25    14    15   ar
    26    14    38    1
    27    15    16   ar
    28    15    39    1
    29    16    22    1
    30    16    17   ar
    31    17    18    1
    32    18    19    1
    33    19    20    1
    34    19    21    1
    35    19    22    1
    36    21    40    1
    37    21    41    1
    38    21    42    1
    39    22    43    1
    40    22    44    1
    41    23    24    1
    42    23    45    1
    43    23    46    1
    44    24    25    1
    45    24    26    1
    46    26    47    1
    47    27    30    1
    48    27    28    1
    49    28    29    1
    50    28    48    1
    51    28    49    1
    52    29    30    1
    53    29    50    1
    54    29    51    1
    55    30    52    1
    56    30    53    1
@<TRIPOS>SUBSTRUCTURE
     1 ZINC000962855438        1 TEMP              0 ****  ****    0 ROOT


##########                                Name:    ZINC000533131987
##########                DOCK_Rotatable_Bonds:                  11
##########                         Heavy_Atoms:                  30
##########                    Molecular_Weight:             419.403
##########                DOCK_Rotatable_Bonds:                  11
##########                       Formal_Charge:                0.01
##########                     HBond_Acceptors:                   9
##########                        HBond_Donors:                   3
##########                         Heavy_Atoms:                  30
##########                          Grid_Score:          -28.548714
##########                     Grid_vdw_energy:          -26.881821
##########                      Grid_es_energy:           -1.666893
##########           Internal_energy_repulsive:           26.648985

@<TRIPOS>MOLECULE
ZINC000533131987
 50 52 1 0 0
SMALL
USER_CHARGES


@<TRIPOS>ATOM
      1 O1        -12.3205   -3.8597   56.6797 O.2     1  ZINC000533131987   -0.5700
      2 C2        -13.0638   -3.5169   57.5789 C.2     1  ZINC000533131987    0.7100
      3 N3        -12.5743   -2.8406   58.6370 N.am    1  ZINC000533131987   -0.7400
      4 C4        -11.1458   -2.5236   58.7065 C.3     1  ZINC000533131987    0.1400
      5 C5        -10.9093   -1.4704   59.7908 C.3     1  ZINC000533131987   -0.0900
      6 H6         -9.8647   -1.4969   60.1014 H       1  ZINC000533131987    0.0900
      7 C7        -11.2415   -0.0838   59.2360 C.3     1  ZINC000533131987    0.0800
      8 O8        -10.0471    0.6971   59.1592 O.3     1  ZINC000533131987   -0.5600
      9 C9        -11.8067   -1.7667   60.9941 C.3     1  ZINC000533131987   -0.0900
     10 C10       -11.2611   -1.0668   62.2121 C.ar    1  ZINC000533131987    0.0000
     11 C11        -9.9215   -1.1811   62.5328 C.ar    1  ZINC000533131987   -0.1100
     12 C12        -9.4210   -0.5390   63.6502 C.ar    1  ZINC000533131987   -0.0800
     13 C13       -10.2600    0.2177   64.4463 C.ar    1  ZINC000533131987   -0.1300
     14 C14       -11.5998    0.3327   64.1251 C.ar    1  ZINC000533131987   -0.0700
     15 C15       -12.0994   -0.3058   63.0056 C.ar    1  ZINC000533131987   -0.1700
     16 C16       -13.5597   -0.1802   62.6554 C.3     1  ZINC000533131987    0.5100
     17 F17       -14.1238   -1.4555   62.5434 F       1  ZINC000533131987   -0.1800
     18 F18       -14.2204    0.5354   63.6597 F       1  ZINC000533131987   -0.1700
     19 F19       -13.6907    0.4962   61.4377 F       1  ZINC000533131987   -0.1800
     20 N20       -14.3780   -3.8085   57.5148 N.am    1  ZINC000533131987   -0.6900
     21 C21       -14.8863   -4.5109   56.4160 C.ar    1  ZINC000533131987    0.1600
     22 C22       -14.7064   -5.8858   56.3267 C.ar    1  ZINC000533131987   -0.1000
     23 C23       -15.2065   -6.5842   55.2434 C.ar    1  ZINC000533131987   -0.1000
     24 C24       -15.8877   -5.9206   54.2437 C.ar    1  ZINC000533131987   -0.1000
     25 C25       -16.0737   -4.5392   54.3242 C.ar    1  ZINC000533131987    0.0000
     26 C26       -16.8036   -3.8256   53.2547 C.2     1  ZINC000533131987    0.2300
     27 N27       -17.6229   -2.8155   53.4287 N.2     1  ZINC000533131987   -0.4700
     28 C28       -18.0923   -2.4327   52.2316 C.2     1  ZINC000533131987   -0.0400
     29 C29       -17.5437   -3.2326   51.2989 C.2     1  ZINC000533131987   -0.0700
     30 O30       -16.7349   -4.0990   51.9403 O.3     1  ZINC000533131987   -0.2000
     31 C31       -15.5743   -3.8357   55.4196 C.ar    1  ZINC000533131987   -0.1000
     32 H32       -13.1680   -2.5638   59.3524 H       1  ZINC000533131987    0.4000
     33 H33       -10.5847   -3.4263   58.9483 H       1  ZINC000533131987    0.0700
     34 H34       -10.8124   -2.1354   57.7441 H       1  ZINC000533131987    0.0800
     35 H35       -11.6742   -0.1848   58.2407 H       1  ZINC000533131987    0.0400
     36 H36       -11.9563    0.4094   59.8947 H       1  ZINC000533131987    0.0600
     37 H37        -9.6410    0.8803   60.0175 H       1  ZINC000533131987    0.3800
     38 H38       -12.8162   -1.4091   60.7913 H       1  ZINC000533131987    0.0800
     39 H39       -11.8312   -2.8416   61.1732 H       1  ZINC000533131987    0.0900
     40 H40        -9.2659   -1.7724   61.9106 H       1  ZINC000533131987    0.1300
     41 H41        -8.3744   -0.6289   63.9011 H       1  ZINC000533131987    0.1300
     42 H42        -9.8692    0.7186   65.3196 H       1  ZINC000533131987    0.1300
     43 H43       -12.2555    0.9237   64.7474 H       1  ZINC000533131987    0.1300
     44 H44       -14.9717   -3.5316   58.2302 H       1  ZINC000533131987    0.4100
     45 H45       -14.1738   -6.4106   57.1060 H       1  ZINC000533131987    0.1500
     46 H46       -15.0633   -7.6527   55.1793 H       1  ZINC000533131987    0.1400
     47 H47       -16.2766   -6.4696   53.3989 H       1  ZINC000533131987    0.1300
     48 H48       -18.7869   -1.6262   52.0490 H       1  ZINC000533131987    0.1900
     49 H49       -17.7164   -3.1862   50.2339 H       1  ZINC000533131987    0.2200
     50 H50       -15.7151   -2.7671   55.4873 H       1  ZINC000533131987    0.1400
@<TRIPOS>BOND
     1     1     2    2
     2     2     3   am
     3     2    20   am
     4     3     4    1
     5     3    32    1
     6     4     5    1
     7     4    33    1
     8     4    34    1
     9     5     6    1
    10     5     7    1
    11     5     9    1
    12     7     8    1
    13     7    35    1
    14     7    36    1
    15     8    37    1
    16     9    10    1
    17     9    38    1
    18     9    39    1
    19    10    15   ar
    20    10    11   ar
    21    11    12   ar
    22    11    40    1
    23    12    13   ar
    24    12    41    1
    25    13    14   ar
    26    13    42    1
    27    14    15   ar
    28    14    43    1
    29    15    16    1
    30    16    17    1
    31    16    18    1
    32    16    19    1
    33    20    21    1
    34    20    44    1
    35    21    31   ar
    36    21    22   ar
    37    22    23   ar
    38    22    45    1
    39    23    24   ar
    40    23    46    1
    41    24    25   ar
    42    24    47    1
    43    25    26    1
    44    25    31   ar
    45    26    30    1
    46    26    27    2
    47    27    28    1
    48    28    29    2
    49    28    48    1
    50    29    30    1
    51    29    49    1
    52    31    50    1
@<TRIPOS>SUBSTRUCTURE
     1 ZINC000533131987        1 TEMP              0 ****  ****    0 ROOT


##########                                Name:    ZINC000944933040
##########                DOCK_Rotatable_Bonds:                   4
##########                         Heavy_Atoms:                  26
##########                    Molecular_Weight:             354.449
##########                DOCK_Rotatable_Bonds:                   4
##########                       Formal_Charge:           0.0100002
##########                     HBond_Acceptors:                   5
##########                        HBond_Donors:                   0
##########                         Heavy_Atoms:                  26
##########                          Grid_Score:          -28.544306
##########                     Grid_vdw_energy:          -28.116095
##########                      Grid_es_energy:           -0.428212
##########           Internal_energy_repulsive:            9.227961

@<TRIPOS>MOLECULE
ZINC000944933040
 52 57 1 0 0
SMALL
USER_CHARGES


@<TRIPOS>ATOM
      1 O1        -15.2302   -1.0283   60.5857 O.2     1  ZINC000944933040   -0.5200
      2 C2        -14.1440   -1.4429   60.2289 C.2     1  ZINC000944933040    0.6400
      3 C3        -12.9469   -0.8198   60.7083 C.1     1  ZINC000944933040   -0.2200
      4 C4        -11.9657   -0.3090   61.1013 C.1     1  ZINC000944933040   -0.0400
      5 C5        -10.7354    0.3314   61.5940 C.3     1  ZINC000944933040   -0.0700
      6 C6        -10.4171    0.1969   63.0845 C.3     1  ZINC000944933040   -0.1600
      7 C7         -9.5983   -0.5832   62.0540 C.3     1  ZINC000944933040   -0.1600
      8 N8        -14.0666   -2.4923   59.3867 N.am    1  ZINC000944933040   -0.6000
      9 C9        -12.7600   -3.0092   58.9589 C.3     1  ZINC000944933040    0.1100
     10 C10       -12.7064   -3.0065   57.4264 C.3     1  ZINC000944933040   -0.1200
     11 C11       -13.9304   -3.7389   56.8821 C.3     1  ZINC000944933040   -0.0900
     12 C12       -13.8731   -3.9922   55.3693 C.3     1  ZINC000944933040    0.1200
     13 N13       -14.4004   -5.3362   55.6792 N.am    1  ZINC000944933040   -0.6400
     14 C14       -15.0963   -6.2599   54.9871 C.2     1  ZINC000944933040    0.5500
     15 O15       -15.4040   -7.3079   55.5143 O.2     1  ZINC000944933040   -0.5300
     16 C16       -15.4920   -5.9906   53.5581 C.3     1  ZINC000944933040   -0.1300
     17 H17       -14.6125   -5.7874   52.9472 H       1  ZINC000944933040    0.1100
     18 C18       -16.4989   -4.8148   53.4795 C.3     1  ZINC000944933040   -0.1300
     19 C19       -17.7639   -5.4846   52.8637 C.3     1  ZINC000944933040    0.0900
     20 H20       -18.7047   -4.9668   53.0505 H       1  ZINC000944933040    0.1300
     21 O21       -17.6653   -6.8398   53.4122 O.3     1  ZINC000944933040   -0.3600
     22 C22       -16.3045   -7.1859   52.9757 C.3     1  ZINC000944933040    0.1200
     23 H23       -15.9582   -8.1813   53.2534 H       1  ZINC000944933040    0.1400
     24 C24       -16.3985   -6.9141   51.4442 C.3     1  ZINC000944933040   -0.2000
     25 H25       -15.4812   -6.9541   50.8568 H       1  ZINC000944933040    0.1200
     26 C26       -17.7535   -7.1484   50.7734 C.3     1  ZINC000944933040   -0.1300
     27 C27       -17.4168   -5.7189   51.3629 C.3     1  ZINC000944933040   -0.2000
     28 H28       -17.2936   -4.8654   50.6961 H       1  ZINC000944933040    0.1300
     29 C29       -13.8591   -5.2631   57.0511 C.3     1  ZINC000944933040    0.1100
     30 C30       -15.2511   -3.1338   57.3513 C.3     1  ZINC000944933040   -0.1100
     31 C31       -15.2877   -3.1391   58.8887 C.3     1  ZINC000944933040    0.1100
     32 H32       -10.4626    1.2656   61.1032 H       1  ZINC000944933040    0.1400
     33 H33        -9.9350    1.0429   63.5745 H       1  ZINC000944933040    0.1100
     34 H34       -11.1188   -0.3658   63.7002 H       1  ZINC000944933040    0.1000
     35 H35        -9.7613   -1.6591   61.9918 H       1  ZINC000944933040    0.1000
     36 H36        -8.5775   -0.2505   61.8661 H       1  ZINC000944933040    0.1100
     37 H37       -11.9682   -2.3725   59.3533 H       1  ZINC000944933040    0.0900
     38 H38       -12.6312   -4.0269   59.3273 H       1  ZINC000944933040    0.0800
     39 H39       -12.7057   -1.9786   57.0636 H       1  ZINC000944933040    0.0800
     40 H40       -11.8006   -3.5125   57.0926 H       1  ZINC000944933040    0.0900
     41 H41       -14.5603   -3.3723   54.7935 H       1  ZINC000944933040    0.0800
     42 H42       -12.8618   -3.9997   54.9628 H       1  ZINC000944933040    0.0900
     43 H43       -16.7144   -4.4237   54.4738 H       1  ZINC000944933040    0.0800
     44 H44       -16.1225   -4.0272   52.8267 H       1  ZINC000944933040    0.0900
     45 H45       -17.7667   -7.2387   49.6871 H       1  ZINC000944933040    0.1000
     46 H46       -18.4755   -7.7692   51.3039 H       1  ZINC000944933040    0.1000
     47 H47       -12.8437   -5.6482   57.1443 H       1  ZINC000944933040    0.0900
     48 H48       -14.5351   -5.6531   57.8119 H       1  ZINC000944933040    0.0800
     49 H49       -15.3330   -2.1100   56.9861 H       1  ZINC000944933040    0.0800
     50 H50       -16.0807   -3.7266   56.9663 H       1  ZINC000944933040    0.0800
     51 H51       -15.3366   -4.1665   59.2495 H       1  ZINC000944933040    0.0700
     52 H52       -16.1606   -2.5858   59.2354 H       1  ZINC000944933040    0.1000
@<TRIPOS>BOND
     1     1     2    2
     2     2     3    1
     3     2     8   am
     4     3     4    3
     5     4     5    1
     6     5     7    1
     7     5     6    1
     8     5    32    1
     9     6     7    1
    10     6    33    1
    11     6    34    1
    12     7    35    1
    13     7    36    1
    14     8    31    1
    15     8     9    1
    16     9    10    1
    17     9    37    1
    18     9    38    1
    19    10    11    1
    20    10    39    1
    21    10    40    1
    22    11    29    1
    23    11    12    1
    24    11    30    1
    25    12    13    1
    26    12    41    1
    27    12    42    1
    28    13    14   am
    29    13    29    1
    30    14    15    2
    31    14    16    1
    32    16    17    1
    33    16    22    1
    34    16    18    1
    35    18    19    1
    36    18    43    1
    37    18    44    1
    38    19    20    1
    39    19    27    1
    40    19    21    1
    41    21    22    1
    42    22    23    1
    43    22    24    1
    44    24    25    1
    45    24    27    1
    46    24    26    1
    47    26    27    1
    48    26    45    1
    49    26    46    1
    50    27    28    1
    51    29    47    1
    52    29    48    1
    53    30    31    1
    54    30    49    1
    55    30    50    1
    56    31    51    1
    57    31    52    1
@<TRIPOS>SUBSTRUCTURE
     1 ZINC000944933040        1 TEMP              0 ****  ****    0 ROOT


##########                                Name:    ZINC001411334959
##########                DOCK_Rotatable_Bonds:                   9
##########                         Heavy_Atoms:                  24
##########                    Molecular_Weight:              339.37
##########                DOCK_Rotatable_Bonds:                   9
##########                       Formal_Charge:           0.0199995
##########                     HBond_Acceptors:                   9
##########                        HBond_Donors:                   3
##########                         Heavy_Atoms:                  24
##########                          Grid_Score:          -28.528635
##########                     Grid_vdw_energy:          -29.112835
##########                      Grid_es_energy:            0.584200
##########           Internal_energy_repulsive:            7.303324

@<TRIPOS>MOLECULE
ZINC001411334959
 46 48 1 0 0
SMALL
USER_CHARGES


@<TRIPOS>ATOM
      1 O1         -9.0849   -1.6136   60.5870 O.2     1  ZINC001411334959   -0.5400
      2 C2        -10.2401   -1.5239   60.9456 C.2     1  ZINC001411334959    0.5200
      3 C3        -10.5714   -0.8717   62.2631 C.3     1  ZINC001411334959   -0.1400
      4 C4         -9.3946   -1.0406   63.2262 C.3     1  ZINC001411334959   -0.0100
      5 C5         -9.7095   -0.3532   64.5297 C.2     1  ZINC001411334959    0.0100
      6 N6         -9.2797   -0.6881   65.7252 N.2     1  ZINC001411334959   -0.2800
      7 N7         -9.7640    0.1375   66.5841 N.pl3   1  ZINC001411334959   -0.2500
      8 N8        -10.5045    1.0153   66.0054 N.2     1  ZINC001411334959   -0.2800
      9 C9        -10.5132    0.7742   64.7139 C.2     1  ZINC001411334959   -0.0200
     10 N10       -11.2278   -2.0024   60.1633 N.am    1  ZINC001411334959   -0.7200
     11 C11       -10.9056   -2.6364   58.8826 C.3     1  ZINC001411334959    0.1200
     12 C12       -12.1331   -2.8757   57.9875 C.3     1  ZINC001411334959   -0.1400
     13 C13       -11.2529   -2.4489   56.8009 C.3     1  ZINC001411334959   -0.1200
     14 C14       -11.9830   -1.5742   55.7798 C.3     1  ZINC001411334959    0.1300
     15 N15       -11.0182   -1.0415   54.8146 N.am    1  ZINC001411334959   -0.7200
     16 C16       -11.4421   -0.2716   53.7928 C.2     1  ZINC001411334959    0.5100
     17 O17       -12.6222   -0.0188   53.6731 O.2     1  ZINC001411334959   -0.5100
     18 C18       -10.4498    0.2749   52.7990 C.3     1  ZINC001411334959    0.0700
     19 F19       -11.0521    1.2273   51.9697 F       1  ZINC001411334959   -0.1800
     20 C20        -9.2122    0.8705   53.5240 C.3     1  ZINC001411334959   -0.1600
     21 C21        -8.1182    0.6795   52.4434 C.3     1  ZINC001411334959    0.0500
     22 O22        -8.4305   -0.5716   51.8106 O.3     1  ZINC001411334959   -0.3700
     23 C23        -9.8243   -0.8633   51.9644 C.3     1  ZINC001411334959    0.0400
     24 C24       -10.4156   -1.6475   57.8116 C.3     1  ZINC001411334959   -0.1400
     25 H25       -10.7622    0.1899   62.1053 H       1  ZINC001411334959    0.1000
     26 H26       -11.4588   -1.3410   62.6880 H       1  ZINC001411334959    0.1000
     27 H27        -9.2227   -2.1017   63.4071 H       1  ZINC001411334959    0.1000
     28 H28        -8.5003   -0.5972   62.7883 H       1  ZINC001411334959    0.0900
     29 H29        -9.5940    0.1027   67.5385 H       1  ZINC001411334959    0.4700
     30 H30       -11.0396    1.3296   63.9518 H       1  ZINC001411334959    0.2000
     31 H31       -12.1519   -1.9270   60.4484 H       1  ZINC001411334959    0.4000
     32 H32       -10.2666   -3.5126   58.9928 H       1  ZINC001411334959    0.1200
     33 H33       -12.4464   -3.9188   57.9458 H       1  ZINC001411334959    0.0800
     34 H34       -12.9586   -2.1924   58.1868 H       1  ZINC001411334959    0.0900
     35 H35       -10.7108   -3.2747   56.3402 H       1  ZINC001411334959    0.1000
     36 H36       -12.7284   -2.1725   55.2557 H       1  ZINC001411334959    0.0800
     37 H37       -12.4757   -0.7492   56.2942 H       1  ZINC001411334959    0.0800
     38 H38       -10.0741   -1.2427   54.9110 H       1  ZINC001411334959    0.4100
     39 H39        -9.3602    1.9262   53.7509 H       1  ZINC001411334959    0.1000
     40 H40        -8.9761    0.3060   54.4261 H       1  ZINC001411334959    0.1100
     41 H41        -8.1582    1.4912   51.7170 H       1  ZINC001411334959    0.0700
     42 H42        -7.1327    0.6336   52.9068 H       1  ZINC001411334959    0.1000
     43 H43        -9.9481   -1.8137   52.4837 H       1  ZINC001411334959    0.0900
     44 H44       -10.3024   -0.9102   50.9860 H       1  ZINC001411334959    0.0900
     45 H45       -10.7716   -0.6285   57.9629 H       1  ZINC001411334959    0.0900
     46 H46        -9.3425   -1.6992   57.6279 H       1  ZINC001411334959    0.0800
@<TRIPOS>BOND
     1     1     2    2
     2     2     3    1
     3     2    10   am
     4     3     4    1
     5     3    25    1
     6     3    26    1
     7     4     5    1
     8     4    27    1
     9     4    28    1
    10     5     9    1
    11     5     6    2
    12     6     7    1
    13     7     8    1
    14     7    29    1
    15     8     9    2
    16     9    30    1
    17    10    11    1
    18    10    31    1
    19    11    24    1
    20    11    12    1
    21    11    32    1
    22    12    13    1
    23    12    33    1
    24    12    34    1
    25    13    14    1
    26    13    24    1
    27    13    35    1
    28    14    15    1
    29    14    36    1
    30    14    37    1
    31    15    16   am
    32    15    38    1
    33    16    17    2
    34    16    18    1
    35    18    23    1
    36    18    19    1
    37    18    20    1
    38    20    21    1
    39    20    39    1
    40    20    40    1
    41    21    22    1
    42    21    41    1
    43    21    42    1
    44    22    23    1
    45    23    43    1
    46    23    44    1
    47    24    45    1
    48    24    46    1
@<TRIPOS>SUBSTRUCTURE
     1 ZINC001411334959        1 TEMP              0 ****  ****    0 ROOT


##########                                Name:    ZINC000119180466
##########                DOCK_Rotatable_Bonds:                  10
##########                         Heavy_Atoms:                  23
##########                    Molecular_Weight:             350.405
##########                DOCK_Rotatable_Bonds:                  10
##########                       Formal_Charge:           0.0299997
##########                     HBond_Acceptors:                   8
##########                        HBond_Donors:                   3
##########                         Heavy_Atoms:                  23
##########                          Grid_Score:          -28.514849
##########                     Grid_vdw_energy:          -27.306057
##########                      Grid_es_energy:           -1.208791
##########           Internal_energy_repulsive:           14.159895

@<TRIPOS>MOLECULE
ZINC000119180466
 44 44 1 0 0
SMALL
USER_CHARGES


@<TRIPOS>ATOM
      1 C1         -6.5861    0.0966   52.1110 C.3     1  ZINC000119180466   -0.1300
      2 S2         -7.4161    1.7065   52.0116 S.3     1  ZINC000119180466   -0.2200
      3 C3         -6.7256    2.6096   53.4252 C.3     1  ZINC000119180466   -0.0700
      4 H4         -6.3269    1.8999   54.1501 H       1  ZINC000119180466    0.1100
      5 C5         -7.8251    3.4464   54.0822 C.3     1  ZINC000119180466    0.0800
      6 O6         -8.8925    2.5906   54.4948 O.3     1  ZINC000119180466   -0.5600
      7 C7         -5.6031    3.5307   52.9429 C.3     1  ZINC000119180466    0.1900
      8 H8         -6.0055    4.2522   52.2317 H       1  ZINC000119180466    0.1000
      9 C9         -5.0036    4.2734   54.1386 C.3     1  ZINC000119180466   -0.1700
     10 N10        -4.5619    2.7320   52.2919 N.am    1  ZINC000119180466   -0.7200
     11 C11        -3.6720    3.3248   51.4714 C.2     1  ZINC000119180466    0.7100
     12 O12        -3.7325    4.5229   51.2727 O.2     1  ZINC000119180466   -0.6000
     13 N13        -2.7149    2.5897   50.8713 N.am    1  ZINC000119180466   -0.7400
     14 C14        -1.7465    3.2344   49.9808 C.3     1  ZINC000119180466    0.2000
     15 H15        -2.1412    4.1947   49.6490 H       1  ZINC000119180466    0.1000
     16 C16        -0.4318    3.4554   50.7316 C.3     1  ZINC000119180466   -0.1600
     17 C17        -1.4996    2.3522   48.7843 C.ar    1  ZINC000119180466   -0.0600
     18 C18        -1.5524    0.9772   48.9166 C.ar    1  ZINC000119180466   -0.1100
     19 C19        -1.3258    0.1680   47.8189 C.ar    1  ZINC000119180466   -0.0600
     20 C20        -1.0470    0.7339   46.5889 C.ar    1  ZINC000119180466   -0.1800
     21 C21        -0.7994   -0.1483   45.3925 C.3     1  ZINC000119180466    0.5100
     22 F22         0.5473   -0.0655   45.0227 F       1  ZINC000119180466   -0.1800
     23 F23        -1.1135   -1.4725   45.7163 F       1  ZINC000119180466   -0.1800
     24 F24        -1.6022    0.2743   44.3274 F       1  ZINC000119180466   -0.1800
     25 C25        -0.9955    2.1088   46.4563 C.ar    1  ZINC000119180466   -0.0600
     26 C26        -1.2258    2.9181   47.5531 C.ar    1  ZINC000119180466   -0.1100
     27 H27        -6.8215   -0.3752   53.0651 H       1  ZINC000119180466    0.0800
     28 H28        -6.9299   -0.5404   51.2960 H       1  ZINC000119180466    0.1000
     29 H29        -5.5082    0.2379   52.0318 H       1  ZINC000119180466    0.0800
     30 H30        -7.4178    3.9638   54.9508 H       1  ZINC000119180466    0.0500
     31 H31        -8.2015    4.1778   53.3670 H       1  ZINC000119180466    0.0600
     32 H32        -8.6289    1.9120   55.1313 H       1  ZINC000119180466    0.3800
     33 H33        -4.6012    3.5519   54.8498 H       1  ZINC000119180466    0.0700
     34 H34        -4.2039    4.9295   53.7949 H       1  ZINC000119180466    0.0700
     35 H35        -5.7783    4.8677   54.6230 H       1  ZINC000119180466    0.0700
     36 H36        -4.5127    1.7764   52.4514 H       1  ZINC000119180466    0.4100
     37 H37        -2.6673    1.6338   51.0289 H       1  ZINC000119180466    0.4000
     38 H38         0.2887    3.9350   50.0692 H       1  ZINC000119180466    0.0700
     39 H39        -0.6105    4.0934   51.5971 H       1  ZINC000119180466    0.0700
     40 H40        -0.0371    2.4951   51.0634 H       1  ZINC000119180466    0.0600
     41 H41        -1.7703    0.5352   49.8776 H       1  ZINC000119180466    0.1300
     42 H42        -1.3664   -0.9062   47.9225 H       1  ZINC000119180466    0.1400
     43 H43        -0.7778    2.5509   45.4953 H       1  ZINC000119180466    0.1400
     44 H44        -1.1855    3.9924   47.4496 H       1  ZINC000119180466    0.1400
@<TRIPOS>BOND
     1     1     2    1
     2     1    27    1
     3     1    28    1
     4     1    29    1
     5     2     3    1
     6     3     4    1
     7     3     5    1
     8     3     7    1
     9     5     6    1
    10     5    30    1
    11     5    31    1
    12     6    32    1
    13     7     8    1
    14     7     9    1
    15     7    10    1
    16     9    33    1
    17     9    34    1
    18     9    35    1
    19    10    11   am
    20    10    36    1
    21    11    12    2
    22    11    13   am
    23    13    14    1
    24    13    37    1
    25    14    15    1
    26    14    16    1
    27    14    17    1
    28    16    38    1
    29    16    39    1
    30    16    40    1
    31    17    26   ar
    32    17    18   ar
    33    18    19   ar
    34    18    41    1
    35    19    20   ar
    36    19    42    1
    37    20    21    1
    38    20    25   ar
    39    21    22    1
    40    21    23    1
    41    21    24    1
    42    25    26   ar
    43    25    43    1
    44    26    44    1
@<TRIPOS>SUBSTRUCTURE
     1 ZINC000119180466        1 TEMP              0 ****  ****    0 ROOT


##########                                Name:    ZINC001045438664
##########                DOCK_Rotatable_Bonds:                   6
##########                         Heavy_Atoms:                  26
##########                    Molecular_Weight:             352.439
##########                DOCK_Rotatable_Bonds:                   6
##########                       Formal_Charge:          -0.0099999
##########                     HBond_Acceptors:                   7
##########                        HBond_Donors:                   2
##########                         Heavy_Atoms:                  26
##########                          Grid_Score:          -28.512821
##########                     Grid_vdw_energy:          -27.563002
##########                      Grid_es_energy:           -0.949820
##########           Internal_energy_repulsive:            8.962871

@<TRIPOS>MOLECULE
ZINC001045438664
 50 53 1 0 0
SMALL
USER_CHARGES


@<TRIPOS>ATOM
      1 C1         -8.9698   -0.0908   64.5632 C.3     1  ZINC001045438664   -0.1100
      2 C2         -9.9230   -0.4124   63.4411 C.ar    1  ZINC001045438664    0.2100
      3 C3         -9.4456   -0.8633   62.2265 C.ar    1  ZINC001045438664   -0.3000
      4 C4        -10.3672   -1.1488   61.2167 C.ar    1  ZINC001045438664    0.4500
      5 N5         -9.9384   -1.6044   59.9807 N.pl3   1  ZINC001045438664   -0.7100
      6 C6        -10.9126   -1.8676   58.9186 C.3     1  ZINC001045438664    0.1500
      7 H7        -11.8738   -1.4319   59.1912 H       1  ZINC001045438664    0.0900
      8 C8        -11.0712   -3.3782   58.7351 C.3     1  ZINC001045438664   -0.1300
      9 C9        -12.0887   -3.6532   57.6260 C.3     1  ZINC001045438664   -0.1200
     10 C10       -11.5983   -3.0292   56.3180 C.3     1  ZINC001045438664   -0.1200
     11 C11       -11.4397   -1.5185   56.5016 C.3     1  ZINC001045438664   -0.1300
     12 C12       -10.4222   -1.2436   57.6106 C.3     1  ZINC001045438664    0.1400
     13 H13        -9.4611   -1.6794   57.3381 H       1  ZINC001045438664    0.1000
     14 N14       -10.2704    0.2028   57.7864 N.am    1  ZINC001045438664   -0.7200
     15 C15        -9.0751    0.7863   57.5689 C.2     1  ZINC001045438664    0.5700
     16 O16        -8.1227    0.1121   57.2282 O.2     1  ZINC001045438664   -0.5200
     17 C17        -8.9223    2.2462   57.7446 C.ar    1  ZINC001045438664   -0.2500
     18 C18        -9.9768    3.0265   58.2320 C.ar    1  ZINC001045438664    0.1900
     19 N19        -9.7964    4.3279   58.3739 N.ar    1  ZINC001045438664   -0.5200
     20 C20        -8.6451    4.8911   58.0637 C.ar    1  ZINC001045438664    0.3200
     21 N21        -7.6261    4.1937   57.6010 N.ar    1  ZINC001045438664   -0.5200
     22 C22        -7.7171    2.8861   57.4335 C.ar    1  ZINC001045438664    0.2100
     23 N23       -11.6629   -0.9767   61.4609 N.ar    1  ZINC001045438664   -0.5800
     24 C24       -12.0742   -0.5440   62.6356 C.ar    1  ZINC001045438664    0.4000
     25 C25       -13.5512   -0.3624   62.8734 C.3     1  ZINC001045438664   -0.1100
     26 C26       -14.4311   -0.0648   61.6576 C.3     1  ZINC001045438664   -0.1500
     27 C27       -14.4921   -1.4386   62.3281 C.3     1  ZINC001045438664   -0.1500
     28 N28       -11.2303   -0.2708   63.6101 N.ar    1  ZINC001045438664   -0.5600
     29 H29        -8.8023   -0.9842   65.1649 H       1  ZINC001045438664    0.0800
     30 H30        -8.0215    0.2505   64.1480 H       1  ZINC001045438664    0.0800
     31 H31        -9.3961    0.6937   65.1885 H       1  ZINC001045438664    0.0800
     32 H32        -8.3861   -0.9918   62.0614 H       1  ZINC001045438664    0.1400
     33 H33        -8.9930   -1.7492   59.8185 H       1  ZINC001045438664    0.4100
     34 H34       -10.1101   -3.8141   58.4625 H       1  ZINC001045438664    0.0700
     35 H35       -11.4206   -3.8228   59.6670 H       1  ZINC001045438664    0.0700
     36 H36       -12.2017   -4.7294   57.4951 H       1  ZINC001045438664    0.0700
     37 H37       -13.0499   -3.2173   57.8986 H       1  ZINC001045438664    0.0700
     38 H38       -10.6371   -3.4649   56.0454 H       1  ZINC001045438664    0.0700
     39 H39       -12.3232   -3.2250   55.5277 H       1  ZINC001045438664    0.0700
     40 H40       -11.0903   -1.0740   55.5696 H       1  ZINC001045438664    0.0800
     41 H41       -12.4009   -1.0827   56.7741 H       1  ZINC001045438664    0.0700
     42 H42       -11.0301    0.7406   58.0595 H       1  ZINC001045438664    0.4000
     43 H43       -10.9228    2.5725   58.4879 H       1  ZINC001045438664    0.1700
     44 H44        -8.5333    5.9576   58.1924 H       1  ZINC001045438664    0.2100
     45 H45        -6.8781    2.3217   57.0542 H       1  ZINC001045438664    0.1800
     46 H46       -13.8207    0.1101   63.8179 H       1  ZINC001045438664    0.1300
     47 H47       -15.2797    0.6039   61.8022 H       1  ZINC001045438664    0.1000
     48 H48       -13.9418   -0.0003   60.6858 H       1  ZINC001045438664    0.1100
     49 H49       -14.0428   -2.2780   61.7974 H       1  ZINC001045438664    0.1000
     50 H50       -15.3808   -1.6739   62.9138 H       1  ZINC001045438664    0.1000
@<TRIPOS>BOND
     1     1     2    1
     2     1    29    1
     3     1    30    1
     4     1    31    1
     5     2    28   ar
     6     2     3   ar
     7     3     4   ar
     8     3    32    1
     9     4     5    1
    10     4    23   ar
    11     5     6    1
    12     5    33    1
    13     6     7    1
    14     6    12    1
    15     6     8    1
    16     8     9    1
    17     8    34    1
    18     8    35    1
    19     9    10    1
    20     9    36    1
    21     9    37    1
    22    10    11    1
    23    10    38    1
    24    10    39    1
    25    11    12    1
    26    11    40    1
    27    11    41    1
    28    12    13    1
    29    12    14    1
    30    14    15   am
    31    14    42    1
    32    15    16    2
    33    15    17    1
    34    17    22   ar
    35    17    18   ar
    36    18    19   ar
    37    18    43    1
    38    19    20   ar
    39    20    21   ar
    40    20    44    1
    41    21    22   ar
    42    22    45    1
    43    23    24   ar
    44    24    25    1
    45    24    28   ar
    46    25    27    1
    47    25    26    1
    48    25    46    1
    49    26    27    1
    50    26    47    1
    51    26    48    1
    52    27    49    1
    53    27    50    1
@<TRIPOS>SUBSTRUCTURE
     1 ZINC001045438664        1 TEMP              0 ****  ****    0 ROOT


##########                                Name:    ZINC001347442583
##########                DOCK_Rotatable_Bonds:                   9
##########                         Heavy_Atoms:                  27
##########                    Molecular_Weight:             370.492
##########                DOCK_Rotatable_Bonds:                   9
##########                       Formal_Charge:          -0.0400009
##########                     HBond_Acceptors:                   5
##########                        HBond_Donors:                   1
##########                         Heavy_Atoms:                  27
##########                          Grid_Score:          -28.511896
##########                     Grid_vdw_energy:          -26.053541
##########                      Grid_es_energy:           -2.458355
##########           Internal_energy_repulsive:           18.025053

@<TRIPOS>MOLECULE
ZINC001347442583
 57 60 1 0 0
SMALL
USER_CHARGES


@<TRIPOS>ATOM
      1 O1          3.5767    1.8219   46.1256 O.2     1  ZINC001347442583   -0.5400
      2 C2          2.8028    0.9994   45.6834 C.2     1  ZINC001347442583    0.5400
      3 C3          3.3262   -0.2687   45.0595 C.3     1  ZINC001347442583   -0.1400
      4 C4          4.7805   -0.0635   44.6306 C.3     1  ZINC001347442583   -0.1000
      5 C5          5.2188   -1.2285   43.7408 C.3     1  ZINC001347442583   -0.1100
      6 C6          5.3505   -2.4958   44.5881 C.3     1  ZINC001347442583   -0.0800
      7 C7          5.8359   -3.6302   43.7229 C.ar    1  ZINC001347442583   -0.0800
      8 C8          6.6532   -3.3717   42.6384 C.ar    1  ZINC001347442583   -0.1200
      9 C9          7.0984   -4.4123   41.8449 C.ar    1  ZINC001347442583   -0.1200
     10 C10         6.7267   -5.7115   42.1361 C.ar    1  ZINC001347442583   -0.1300
     11 C11         5.9102   -5.9702   43.2211 C.ar    1  ZINC001347442583   -0.1200
     12 C12         5.4685   -4.9299   44.0173 C.ar    1  ZINC001347442583   -0.1200
     13 N13         1.4746    1.2168   45.7550 N.am    1  ZINC001347442583   -0.6300
     14 C14         0.3156    0.3770   45.2982 C.3     1  ZINC001347442583    0.1200
     15 H15         0.5726   -0.5690   44.8218 H       1  ZINC001347442583    0.1200
     16 C16        -0.4551    1.3934   44.4028 C.3     1  ZINC001347442583   -0.1300
     17 C17        -0.1951    2.7535   45.0961 C.3     1  ZINC001347442583   -0.1300
     18 C18         0.6972    2.3707   46.3218 C.3     1  ZINC001347442583    0.1200
     19 H19         1.2908    3.1819   46.7431 H       1  ZINC001347442583    0.1200
     20 C20        -0.2662    1.6557   47.3165 C.3     1  ZINC001347442583    0.1300
     21 H21        -1.1901    2.2227   47.4310 H       1  ZINC001347442583    0.1100
     22 N22         0.3833    1.4626   48.6155 N.am    1  ZINC001347442583   -0.7200
     23 C23         0.4267    2.4748   49.5043 C.2     1  ZINC001347442583    0.5300
     24 O24        -0.0732    3.5451   49.2294 O.2     1  ZINC001347442583   -0.5300
     25 C25         1.0964    2.2767   50.8397 C.3     1  ZINC001347442583   -0.1500
     26 H26         0.3884    1.8913   51.5733 H       1  ZINC001347442583    0.1100
     27 C27         2.3238    1.3343   50.7080 C.3     1  ZINC001347442583   -0.1400
     28 C28         3.2064    1.8355   51.8787 C.3     1  ZINC001347442583    0.0500
     29 O29         3.0066    3.2574   51.9169 O.3     1  ZINC001347442583   -0.3800
     30 C30         1.7380    3.5913   51.3331 C.3     1  ZINC001347442583    0.0700
     31 C31        -0.5090    0.2642   46.6158 C.3     1  ZINC001347442583   -0.1400
     32 H32         3.2726   -1.0799   45.7857 H       1  ZINC001347442583    0.0900
     33 H33         2.7224   -0.5209   44.1878 H       1  ZINC001347442583    0.0900
     34 H34         4.8672    0.8705   44.0754 H       1  ZINC001347442583    0.0700
     35 H35         5.4173   -0.0214   45.5141 H       1  ZINC001347442583    0.0700
     36 H36         4.4756   -1.3891   42.9600 H       1  ZINC001347442583    0.0600
     37 H37         6.1808   -0.9951   43.2845 H       1  ZINC001347442583    0.0600
     38 H38         6.0640   -2.3219   45.3935 H       1  ZINC001347442583    0.0700
     39 H39         4.3794   -2.7519   45.0118 H       1  ZINC001347442583    0.0700
     40 H40         6.9435   -2.3567   42.4109 H       1  ZINC001347442583    0.1200
     41 H41         7.7362   -4.2102   40.9971 H       1  ZINC001347442583    0.1200
     42 H42         7.0739   -6.5245   41.5157 H       1  ZINC001347442583    0.1200
     43 H43         5.6196   -6.9852   43.4485 H       1  ZINC001347442583    0.1200
     44 H44         4.8306   -5.1320   44.8650 H       1  ZINC001347442583    0.1200
     45 H45        -0.0523    1.3954   43.3900 H       1  ZINC001347442583    0.0700
     46 H46        -1.5209    1.1651   44.3928 H       1  ZINC001347442583    0.0800
     47 H47         0.3367    3.4300   44.4270 H       1  ZINC001347442583    0.0800
     48 H48        -1.1319    3.1996   45.4299 H       1  ZINC001347442583    0.0800
     49 H49         0.7820    0.6062   48.8357 H       1  ZINC001347442583    0.4000
     50 H50         2.0364    0.2925   50.8508 H       1  ZINC001347442583    0.0900
     51 H51         2.8252    1.4737   49.7503 H       1  ZINC001347442583    0.0900
     52 H52         2.8839    1.3828   52.8164 H       1  ZINC001347442583    0.0700
     53 H53         4.2546    1.6057   51.6876 H       1  ZINC001347442583    0.0900
     54 H54         1.8851    4.2669   50.4904 H       1  ZINC001347442583    0.0700
     55 H55         1.0999    4.0633   52.0801 H       1  ZINC001347442583    0.0800
     56 H56        -1.5642    0.1344   46.3751 H       1  ZINC001347442583    0.0900
     57 H57        -0.1551   -0.5507   47.2473 H       1  ZINC001347442583    0.0800
@<TRIPOS>BOND
     1     1     2    2
     2     2     3    1
     3     2    13   am
     4     3     4    1
     5     3    32    1
     6     3    33    1
     7     4     5    1
     8     4    34    1
     9     4    35    1
    10     5     6    1
    11     5    36    1
    12     5    37    1
    13     6     7    1
    14     6    38    1
    15     6    39    1
    16     7    12   ar
    17     7     8   ar
    18     8     9   ar
    19     8    40    1
    20     9    10   ar
    21     9    41    1
    22    10    11   ar
    23    10    42    1
    24    11    12   ar
    25    11    43    1
    26    12    44    1
    27    13    18    1
    28    13    14    1
    29    14    15    1
    30    14    31    1
    31    14    16    1
    32    16    17    1
    33    16    45    1
    34    16    46    1
    35    17    18    1
    36    17    47    1
    37    17    48    1
    38    18    19    1
    39    18    20    1
    40    20    21    1
    41    20    22    1
    42    20    31    1
    43    22    23   am
    44    22    49    1
    45    23    24    2
    46    23    25    1
    47    25    26    1
    48    25    30    1
    49    25    27    1
    50    27    28    1
    51    27    50    1
    52    27    51    1
    53    28    29    1
    54    28    52    1
    55    28    53    1
    56    29    30    1
    57    30    54    1
    58    30    55    1
    59    31    56    1
    60    31    57    1
@<TRIPOS>SUBSTRUCTURE
     1 ZINC001347442583        1 TEMP              0 ****  ****    0 ROOT


##########                                Name:    ZINC000416583757
##########                DOCK_Rotatable_Bonds:                   7
##########                         Heavy_Atoms:                  20
##########                    Molecular_Weight:             380.693
##########                DOCK_Rotatable_Bonds:                   7
##########                       Formal_Charge:         1.04308e-07
##########                     HBond_Acceptors:                   7
##########                        HBond_Donors:                   1
##########                         Heavy_Atoms:                  20
##########                          Grid_Score:          -28.511286
##########                     Grid_vdw_energy:          -26.251543
##########                      Grid_es_energy:           -2.259742
##########           Internal_energy_repulsive:           18.275816

@<TRIPOS>MOLECULE
ZINC000416583757
 35 35 1 0 0
SMALL
USER_CHARGES


@<TRIPOS>ATOM
      1 C1        -12.6442    1.4960   66.9461 C.3     1  ZINC000416583757   -0.1500
      2 C2        -11.1748    1.3771   66.5371 C.3     1  ZINC000416583757   -0.0200
      3 H3        -11.0925    0.7340   65.6609 H       1  ZINC000416583757    0.1200
      4 C4        -10.6451    2.7127   66.2169 C.1     1  ZINC000416583757    0.2100
      5 N5        -10.2363    3.7434   65.9698 N.1     1  ZINC000416583757   -0.4200
      6 C6        -10.3715    0.7729   67.6906 C.3     1  ZINC000416583757    0.1300
      7 N7         -8.9645    0.6592   67.2987 N.am    1  ZINC000416583757   -1.0100
      8 C8         -8.0401    1.7657   67.5581 C.3     1  ZINC000416583757    0.0800
      9 S9         -8.4190   -0.7201   66.5622 S.o2    1  ZINC000416583757    2.7800
     10 O10        -7.0755   -0.4643   66.1761 O.2     1  ZINC000416583757   -0.9700
     11 O11        -8.7927   -1.8004   67.4063 O.2     1  ZINC000416583757   -0.9700
     12 N12        -9.2820   -0.9017   65.1606 N.am    1  ZINC000416583757   -1.1300
     13 C13        -9.2301    0.1369   64.1287 C.3     1  ZINC000416583757    0.1600
     14 C14        -9.9672   -0.3360   62.9024 C.ar    1  ZINC000416583757   -0.0800
     15 C15        -9.2757   -0.9469   61.8735 C.ar    1  ZINC000416583757   -0.0800
     16 C16        -9.9522   -1.3818   60.7474 C.ar    1  ZINC000416583757   -0.0300
     17 Cl17       -9.0837   -2.1497   59.4553 Cl      1  ZINC000416583757   -0.0500
     18 C18       -11.3206   -1.2050   60.6519 C.ar    1  ZINC000416583757   -0.0700
     19 C19       -12.0122   -0.5936   61.6820 C.ar    1  ZINC000416583757   -0.0800
     20 Br20      -13.8831   -0.3514   61.5522 Br      1  ZINC000416583757   -0.0300
     21 C21       -11.3357   -0.1639   62.8094 C.ar    1  ZINC000416583757   -0.0700
     22 H22       -13.1935    2.0361   66.1750 H       1  ZINC000416583757    0.0700
     23 H23       -13.0700    0.4997   67.0652 H       1  ZINC000416583757    0.0800
     24 H24       -12.7162    2.0370   67.8897 H       1  ZINC000416583757    0.0700
     25 H25       -10.4538    1.4161   68.5668 H       1  ZINC000416583757    0.0900
     26 H26       -10.7638   -0.2160   67.9276 H       1  ZINC000416583757    0.1000
     27 H27        -7.5874    1.6380   68.5414 H       1  ZINC000416583757    0.0700
     28 H28        -7.2599    1.7734   66.7970 H       1  ZINC000416583757    0.0800
     29 H29        -8.5853    2.7091   67.5289 H       1  ZINC000416583757    0.0800
     30 H30        -9.8218   -1.6957   65.0228 H       1  ZINC000416583757    0.4200
     31 H31        -9.6975    1.0468   64.5052 H       1  ZINC000416583757    0.0800
     32 H32        -8.1909    0.3420   63.8715 H       1  ZINC000416583757    0.1000
     33 H33        -8.2071   -1.0846   61.9482 H       1  ZINC000416583757    0.1500
     34 H34       -11.8491   -1.5440   59.7731 H       1  ZINC000416583757    0.1500
     35 H35       -11.8757    0.3135   63.6138 H       1  ZINC000416583757    0.1400
@<TRIPOS>BOND
     1     1     2    1
     2     1    22    1
     3     1    23    1
     4     1    24    1
     5     2     3    1
     6     2     4    1
     7     2     6    1
     8     4     5    3
     9     6     7    1
    10     6    25    1
    11     6    26    1
    12     7     8    1
    13     7     9   am
    14     8    27    1
    15     8    28    1
    16     8    29    1
    17     9    10    2
    18     9    11    2
    19     9    12   am
    20    12    13    1
    21    12    30    1
    22    13    14    1
    23    13    31    1
    24    13    32    1
    25    14    21   ar
    26    14    15   ar
    27    15    16   ar
    28    15    33    1
    29    16    17    1
    30    16    18   ar
    31    18    19   ar
    32    18    34    1
    33    19    20    1
    34    19    21   ar
    35    21    35    1
@<TRIPOS>SUBSTRUCTURE
     1 ZINC000416583757        1 TEMP              0 ****  ****    0 ROOT


##########                                Name:    ZINC000937331732
##########                DOCK_Rotatable_Bonds:                   6
##########                         Heavy_Atoms:                  24
##########                    Molecular_Weight:              333.35
##########                DOCK_Rotatable_Bonds:                   6
##########                       Formal_Charge:          -0.0299999
##########                     HBond_Acceptors:                  10
##########                        HBond_Donors:                   1
##########                         Heavy_Atoms:                  24
##########                          Grid_Score:          -28.488527
##########                     Grid_vdw_energy:          -25.043663
##########                      Grid_es_energy:           -3.444864
##########           Internal_energy_repulsive:           27.269478

@<TRIPOS>MOLECULE
ZINC000937331732
 43 45 1 0 0
SMALL
USER_CHARGES


@<TRIPOS>ATOM
      1 C1          0.2901    3.4098   45.8762 C.3     1  ZINC000937331732    0.0600
      2 N2          0.8339    2.6446   44.7514 N.am    1  ZINC000937331732   -0.6100
      3 C3          0.0876    1.6890   44.1631 C.2     1  ZINC000937331732    0.5000
      4 O4          0.5372    1.0566   43.2310 O.2     1  ZINC000937331732   -0.5200
      5 C5         -1.3056    1.4063   44.6633 C.3     1  ZINC000937331732    0.1500
      6 N6         -1.2343    0.5448   45.8461 N.am    1  ZINC000937331732   -0.4400
      7 N7         -0.8738   -0.8096   45.8670 N.2     1  ZINC000937331732   -0.2800
      8 C8         -0.9287   -1.2223   47.0921 C.2     1  ZINC000937331732    0.2600
      9 N9         -1.3174   -0.1777   47.8949 N.am    1  ZINC000937331732   -0.5600
     10 C10        -1.4985   -0.2336   49.3476 C.3     1  ZINC000937331732    0.1000
     11 C11        -1.4980    0.9094   47.1183 C.2     1  ZINC000937331732    0.6500
     12 O12        -1.8434    2.0153   47.4947 O.2     1  ZINC000937331732   -0.5500
     13 C13         2.1889    2.9183   44.2663 C.3     1  ZINC000937331732    0.1300
     14 H14         2.5805    2.0621   43.7169 H       1  ZINC000937331732    0.1200
     15 C15         2.2084    4.1933   43.3823 C.3     1  ZINC000937331732   -0.1500
     16 C16         3.6716    4.6710   43.5578 C.3     1  ZINC000937331732    0.1000
     17 N17         3.9981    4.3772   44.9651 N.am    1  ZINC000937331732   -0.6000
     18 C18         4.9429    4.9986   45.6985 C.2     1  ZINC000937331732    0.6200
     19 O19         5.6107    5.8861   45.2036 O.2     1  ZINC000937331732   -0.5400
     20 C20         5.1667    4.6022   47.1006 C.2     1  ZINC000937331732    0.1400
     21 N21         6.0529    5.1290   47.9187 N.2     1  ZINC000937331732   -0.4400
     22 C22         5.9689    4.5224   49.1006 C.2     1  ZINC000937331732   -0.0300
     23 C23         4.9971    3.5801   49.0286 C.2     1  ZINC000937331732   -0.0200
     24 N24         4.4856    3.6286   47.7758 N.pl3   1  ZINC000937331732   -0.5200
     25 C25         3.1233    3.2899   45.4369 C.3     1  ZINC000937331732    0.1000
     26 H26         0.5307    2.9028   46.8107 H       1  ZINC000937331732    0.0700
     27 H27         0.7273    4.4083   45.8816 H       1  ZINC000937331732    0.0800
     28 H28        -0.7923    3.4876   45.7732 H       1  ZINC000937331732    0.0800
     29 H29        -1.7946    2.3443   44.9260 H       1  ZINC000937331732    0.1300
     30 H30        -1.8771    0.9047   43.8824 H       1  ZINC000937331732    0.1300
     31 H31        -0.7057   -2.2241   47.4285 H       1  ZINC000937331732    0.2300
     32 H32        -1.2766   -1.2399   49.7029 H       1  ZINC000937331732    0.1000
     33 H33        -0.8242    0.4773   49.8253 H       1  ZINC000937331732    0.0800
     34 H34        -2.5291    0.0202   49.5953 H       1  ZINC000937331732    0.0800
     35 H35         1.9992    3.9497   42.3407 H       1  ZINC000937331732    0.0900
     36 H36         1.5065    4.9387   43.7562 H       1  ZINC000937331732    0.0800
     37 H37         4.3336    4.1183   42.8913 H       1  ZINC000937331732    0.0800
     38 H38         3.7466    5.7414   43.3665 H       1  ZINC000937331732    0.1100
     39 H39         6.5721    4.7435   49.9687 H       1  ZINC000937331732    0.1800
     40 H40         4.6866    2.9173   49.8227 H       1  ZINC000937331732    0.1900
     41 H41         3.7735    3.0728   47.4224 H       1  ZINC000937331732    0.4300
     42 H42         2.5318    3.6320   46.2861 H       1  ZINC000937331732    0.0800
     43 H43         3.7254    2.4282   45.7250 H       1  ZINC000937331732    0.0800
@<TRIPOS>BOND
     1     1     2    1
     2     1    26    1
     3     1    27    1
     4     1    28    1
     5     2     3   am
     6     2    13    1
     7     3     4    2
     8     3     5    1
     9     5     6    1
    10     5    29    1
    11     5    30    1
    12     6    11   am
    13     6     7    1
    14     7     8    2
    15     8     9    1
    16     8    31    1
    17     9    10    1
    18     9    11   am
    19    10    32    1
    20    10    33    1
    21    10    34    1
    22    11    12    2
    23    13    14    1
    24    13    25    1
    25    13    15    1
    26    15    16    1
    27    15    35    1
    28    15    36    1
    29    16    17    1
    30    16    37    1
    31    16    38    1
    32    17    18   am
    33    17    25    1
    34    18    19    2
    35    18    20    1
    36    20    24    1
    37    20    21    2
    38    21    22    1
    39    22    23    2
    40    22    39    1
    41    23    24    1
    42    23    40    1
    43    24    41    1
    44    25    42    1
    45    25    43    1
@<TRIPOS>SUBSTRUCTURE
     1 ZINC000937331732        1 TEMP              0 ****  ****    0 ROOT


##########                                Name:    ZINC001067316277
##########                DOCK_Rotatable_Bonds:                   5
##########                         Heavy_Atoms:                  24
##########                    Molecular_Weight:             345.469
##########                DOCK_Rotatable_Bonds:                   5
##########                       Formal_Charge:          -0.0200007
##########                     HBond_Acceptors:                   7
##########                        HBond_Donors:                   2
##########                         Heavy_Atoms:                  24
##########                          Grid_Score:          -28.458256
##########                     Grid_vdw_energy:          -28.048792
##########                      Grid_es_energy:           -0.409464
##########           Internal_energy_repulsive:           15.323309

@<TRIPOS>MOLECULE
ZINC001067316277
 47 49 1 0 0
SMALL
USER_CHARGES


@<TRIPOS>ATOM
      1 C1         -6.8697    0.9899   52.5836 C.3     1  ZINC001067316277   -0.1400
      2 S2         -5.9384    0.3321   51.1779 S.3     1  ZINC001067316277   -0.0400
      3 C3         -4.5756    1.4487   51.1642 C.ar    1  ZINC001067316277    0.1800
      4 C4         -4.5111    2.4998   52.0823 C.ar    1  ZINC001067316277   -0.2400
      5 C5         -3.4243    3.3503   52.0346 C.ar    1  ZINC001067316277    0.1900
      6 N6         -2.4810    3.1469   51.1264 N.ar    1  ZINC001067316277   -0.5600
      7 C7         -2.5676    2.1416   50.2674 C.ar    1  ZINC001067316277    0.5100
      8 N8         -1.5614    1.9629   49.3341 N.3     1  ZINC001067316277   -0.4600
      9 C9         -1.8979    0.8830   48.3977 C.3     1  ZINC001067316277    0.0700
     10 C10        -0.7064    0.6164   47.4750 C.3     1  ZINC001067316277   -0.1300
     11 C11        -0.3661    1.8961   46.7063 C.3     1  ZINC001067316277    0.1600
     12 H12        -1.2121    2.1813   46.0810 H       1  ZINC001067316277    0.0900
     13 N13         0.8093    1.6630   45.8634 N.am    1  ZINC001067316277   -0.7200
     14 C14         0.6584    1.1702   44.6181 C.2     1  ZINC001067316277    0.5900
     15 O15        -0.4541    0.9176   44.1943 O.2     1  ZINC001067316277   -0.5300
     16 C16         1.8350    0.9385   43.7735 C.2     1  ZINC001067316277   -0.0600
     17 C17         3.1480    1.1712   44.1236 C.2     1  ZINC001067316277   -0.1000
     18 C18         3.9358    0.8129   43.0252 C.2     1  ZINC001067316277   -0.2100
     19 C19         3.1085    0.3773   42.0451 C.2     1  ZINC001067316277    0.0300
     20 N20         1.8297    0.4434   42.4891 N.pl3   1  ZINC001067316277   -0.5400
     21 C21        -0.0669    3.0177   47.7049 C.3     1  ZINC001067316277   -0.0700
     22 C22         1.1544    2.6406   48.5459 C.3     1  ZINC001067316277   -0.1400
     23 C23         0.2166    4.3154   46.9456 C.3     1  ZINC001067316277   -0.1400
     24 C24        -1.2769    3.2146   48.6209 C.3     1  ZINC001067316277    0.0800
     25 N25        -3.5902    1.3003   50.2832 N.ar    1  ZINC001067316277   -0.5400
     26 H26        -6.2522    0.9463   53.4808 H       1  ZINC001067316277    0.0900
     27 H27        -7.1470    2.0248   52.3834 H       1  ZINC001067316277    0.0900
     28 H28        -7.7705    0.3947   52.7333 H       1  ZINC001067316277    0.1000
     29 H29        -5.2937    2.6441   52.8126 H       1  ZINC001067316277    0.1500
     30 H30        -3.3440    4.1729   52.7298 H       1  ZINC001067316277    0.1700
     31 H31        -2.1337   -0.0224   48.9571 H       1  ZINC001067316277    0.1000
     32 H32        -2.7613    1.1760   47.8005 H       1  ZINC001067316277    0.0500
     33 H33         0.1536    0.3099   48.0706 H       1  ZINC001067316277    0.0800
     34 H34        -0.9620   -0.1746   46.7700 H       1  ZINC001067316277    0.0800
     35 H35         1.6961    1.8633   46.2017 H       1  ZINC001067316277    0.3900
     36 H36         3.5015    1.5577   45.0680 H       1  ZINC001067316277    0.1500
     37 H37         5.0126    0.8731   42.9683 H       1  ZINC001067316277    0.1500
     38 H38         3.4179    0.0303   41.0701 H       1  ZINC001067316277    0.1700
     39 H39         1.0415    0.1896   41.9838 H       1  ZINC001067316277    0.4100
     40 H40         2.0151    2.4970   47.8926 H       1  ZINC001067316277    0.0500
     41 H41         1.3669    3.4393   49.2565 H       1  ZINC001067316277    0.0600
     42 H42         0.9513    1.7168   49.0875 H       1  ZINC001067316277    0.0700
     43 H43        -0.6542    4.5843   46.3479 H       1  ZINC001067316277    0.0600
     44 H44         0.4296    5.1134   47.6570 H       1  ZINC001067316277    0.0600
     45 H45         1.0767    4.1730   46.2913 H       1  ZINC001067316277    0.0600
     46 H46        -2.1432    3.4967   48.0227 H       1  ZINC001067316277    0.0600
     47 H47        -1.0617    4.0029   49.3424 H       1  ZINC001067316277    0.1000
@<TRIPOS>BOND
     1     1     2    1
     2     1    26    1
     3     1    27    1
     4     1    28    1
     5     2     3    1
     6     3    25   ar
     7     3     4   ar
     8     4     5   ar
     9     4    29    1
    10     5     6   ar
    11     5    30    1
    12     6     7   ar
    13     7     8    1
    14     7    25   ar
    15     8    24    1
    16     8     9    1
    17     9    10    1
    18     9    31    1
    19     9    32    1
    20    10    11    1
    21    10    33    1
    22    10    34    1
    23    11    12    1
    24    11    13    1
    25    11    21    1
    26    13    14   am
    27    13    35    1
    28    14    15    2
    29    14    16    1
    30    16    20    1
    31    16    17    2
    32    17    18    1
    33    17    36    1
    34    18    19    2
    35    18    37    1
    36    19    20    1
    37    19    38    1
    38    20    39    1
    39    21    22    1
    40    21    23    1
    41    21    24    1
    42    22    40    1
    43    22    41    1
    44    22    42    1
    45    23    43    1
    46    23    44    1
    47    23    45    1
    48    24    46    1
    49    24    47    1
@<TRIPOS>SUBSTRUCTURE
     1 ZINC001067316277        1 TEMP              0 ****  ****    0 ROOT


##########                                Name:    ZINC000328606936
##########                DOCK_Rotatable_Bonds:                   6
##########                         Heavy_Atoms:                  23
##########                    Molecular_Weight:             338.428
##########                DOCK_Rotatable_Bonds:                   6
##########                       Formal_Charge:           0.0100001
##########                     HBond_Acceptors:                   7
##########                        HBond_Donors:                   2
##########                         Heavy_Atoms:                  23
##########                          Grid_Score:          -28.438862
##########                     Grid_vdw_energy:          -25.232956
##########                      Grid_es_energy:           -3.205905
##########           Internal_energy_repulsive:           11.786572

@<TRIPOS>MOLECULE
ZINC000328606936
 45 47 1 0 0
SMALL
USER_CHARGES


@<TRIPOS>ATOM
      1 C1         -9.5396    1.0674   64.0424 C.3     1  <0>        -0.0500
      2 N2        -10.2572   -0.1827   64.3257 N.4     1  <0>        -0.3500
      3 H3        -11.0962    0.0219   64.8476 H       1  <0>         0.4200
      4 C4         -9.3956   -1.0741   65.1137 C.3     1  <0>        -0.0900
      5 C5         -9.0954   -0.4348   66.4451 C.2     1  <0>         0.4900
      6 O6         -9.9288    0.2748   66.9823 O.co2   1  <0>        -0.6700
      7 O7         -8.0194   -0.6272   66.9849 O.co2   1  <0>        -0.6400
      8 C8        -10.6150   -0.8394   63.0613 C.3     1  <0>         0.0100
      9 H9        -11.2184   -1.7266   63.2535 H       1  <0>         0.1600
     10 C10        -9.3420   -1.2165   62.2735 C.3     1  <0>         0.1000
     11 N11        -9.6954   -0.9765   60.8549 N.am    1  <0>        -0.6200
     12 C12        -9.3645   -1.7231   59.7827 C.2     1  <0>         0.6200
     13 O13        -8.6956   -2.7298   59.9252 O.2     1  <0>        -0.5100
     14 C14        -9.8101   -1.3225   58.4450 C.2     1  <0>        -0.2800
     15 C15       -10.8966   -1.8196   57.7929 C.2     1  <0>        -0.0300
     16 C16       -11.1010   -1.2740   56.5388 C.2     1  <0>        -0.1200
     17 C17       -10.1828   -0.3449   56.1887 C.2     1  <0>        -0.1900
     18 C18       -10.1822    0.4024   54.8683 C.3     1  <0>        -0.0500
     19 C19       -11.0883   -0.3396   53.8825 C.3     1  <0>        -0.1200
     20 C20       -12.4373   -0.6127   54.5541 C.3     1  <0>        -0.1200
     21 C21       -12.2552   -1.6824   55.6325 C.3     1  <0>        -0.0600
     22 S22        -9.0323   -0.1190   57.4301 S.3     1  <0>         0.2000
     23 C23       -10.4951    0.2703   60.8823 C.3     1  <0>         0.0600
     24 C24       -11.3778    0.1401   62.1452 C.3     1  <0>         0.0800
     25 H25       -11.4861    1.1086   62.6333 H       1  <0>         0.1000
     26 O26       -12.6603   -0.3889   61.8026 O.3     1  <0>        -0.5400
     27 H27        -8.6333    0.8464   63.4787 H       1  <0>         0.1100
     28 H28       -10.1790    1.7288   63.4576 H       1  <0>         0.1100
     29 H29        -9.2742    1.5546   64.9806 H       1  <0>         0.1600
     30 H30        -9.9053   -2.0242   65.2737 H       1  <0>         0.1200
     31 H31        -8.4637   -1.2477   64.5758 H       1  <0>         0.1300
     32 H32        -8.5086   -0.5798   62.5705 H       1  <0>         0.1000
     33 H33        -9.0944   -2.2662   62.4311 H       1  <0>         0.1200
     34 H34       -11.5422   -2.5742   58.2175 H       1  <0>         0.1500
     35 H35       -10.5585    1.4139   55.0206 H       1  <0>         0.0900
     36 H36        -9.1675    0.4435   54.4722 H       1  <0>         0.0800
     37 H37       -11.2406    0.2738   52.9944 H       1  <0>         0.0700
     38 H38       -10.6237   -1.2841   53.5999 H       1  <0>         0.0700
     39 H39       -12.8096    0.3048   55.0098 H       1  <0>         0.0700
     40 H40       -13.1503   -0.9651   53.8088 H       1  <0>         0.0700
     41 H41       -12.0308   -2.6401   55.1629 H       1  <0>         0.0800
     42 H42       -13.1687   -1.7670   56.2211 H       1  <0>         0.0800
     43 H43        -9.8418    1.1391   60.9621 H       1  <0>         0.1000
     44 H44       -11.1175    0.3423   59.9904 H       1  <0>         0.1000
     45 H45       -13.1539    0.1536   61.1723 H       1  <0>         0.4000
@<TRIPOS>BOND
     1     1     2    1
     2     1    27    1
     3     1    28    1
     4     1    29    1
     5     2     3    1
     6     2     4    1
     7     2     8    1
     8     4     5    1
     9     4    30    1
    10     4    31    1
    11     5     6   ar
    12     5     7   ar
    13     8     9    1
    14     8    24    1
    15     8    10    1
    16    10    11    1
    17    10    32    1
    18    10    33    1
    19    11    12   am
    20    11    23    1
    21    12    13    2
    22    12    14    1
    23    14    22    1
    24    14    15    2
    25    15    16    1
    26    15    34    1
    27    16    21    1
    28    16    17    2
    29    17    18    1
    30    17    22    1
    31    18    19    1
    32    18    35    1
    33    18    36    1
    34    19    20    1
    35    19    37    1
    36    19    38    1
    37    20    21    1
    38    20    39    1
    39    20    40    1
    40    21    41    1
    41    21    42    1
    42    23    24    1
    43    23    43    1
    44    23    44    1
    45    24    25    1
    46    24    26    1
    47    26    45    1
@<TRIPOS>SUBSTRUCTURE
     1 <0>         1 TEMP              0 ****  ****    0 ROOT


##########                                Name:    ZINC000081577146
##########                DOCK_Rotatable_Bonds:                   4
##########                         Heavy_Atoms:                  25
##########                    Molecular_Weight:             355.464
##########                DOCK_Rotatable_Bonds:                   4
##########                       Formal_Charge:                0.02
##########                     HBond_Acceptors:                   7
##########                        HBond_Donors:                   0
##########                         Heavy_Atoms:                  25
##########                          Grid_Score:          -28.403694
##########                     Grid_vdw_energy:          -27.715086
##########                      Grid_es_energy:           -0.688609
##########           Internal_energy_repulsive:           13.796037

@<TRIPOS>MOLECULE
ZINC000081577146
 46 49 1 0 0
SMALL
USER_CHARGES


@<TRIPOS>ATOM
      1 C1          1.4974    3.5082   53.4309 C.3     1  ZINC000081577146   -0.0700
      2 C2          0.2798    3.5914   52.5467 C.2     1  ZINC000081577146    0.2900
      3 N3         -0.7847    4.2347   52.9289 N.2     1  ZINC000081577146   -0.4800
      4 S4         -1.8992    4.0812   51.6551 S.3     1  ZINC000081577146    0.1900
      5 C5         -0.8471    3.1427   50.6644 C.2     1  ZINC000081577146    0.2700
      6 N6         -1.1085    2.6326   49.4056 N.3     1  ZINC000081577146   -0.4300
      7 C7         -1.3080    1.1776   49.4581 C.3     1  ZINC000081577146    0.0700
      8 C8         -1.6723    0.6647   48.0629 C.3     1  ZINC000081577146    0.0500
      9 N9         -0.5998    1.0126   47.1205 N.3     1  ZINC000081577146   -0.5200
     10 C10        -0.8774    0.4708   45.7836 C.3     1  ZINC000081577146    0.1900
     11 H11        -1.8999    0.7167   45.4969 H       1  ZINC000081577146    0.0700
     12 C12        -0.7050   -1.0494   45.8035 C.3     1  ZINC000081577146   -0.1500
     13 C13         0.0816    1.0721   44.7887 C.2     1  ZINC000081577146    0.1900
     14 N14        -0.1078    2.1812   44.1303 N.2     1  ZINC000081577146   -0.4500
     15 C15         0.9523    2.4031   43.3388 C.2     1  ZINC000081577146   -0.0200
     16 C16         1.8244    1.3797   43.5273 C.2     1  ZINC000081577146    0.0000
     17 C17         3.1333    1.2040   42.8631 C.ar    1  ZINC000081577146   -0.0200
     18 C18         3.9241    0.0918   43.1559 C.ar    1  ZINC000081577146   -0.1000
     19 C19         5.1444   -0.0665   42.5322 C.ar    1  ZINC000081577146   -0.1200
     20 C20         5.5850    0.8745   41.6186 C.ar    1  ZINC000081577146   -0.1100
     21 C21         4.8062    1.9794   41.3242 C.ar    1  ZINC000081577146   -0.1100
     22 C22         3.5811    2.1465   41.9362 C.ar    1  ZINC000081577146   -0.0900
     23 O23         1.2687    0.5557   44.4427 O.3     1  ZINC000081577146   -0.2000
     24 C24        -0.4002    2.4677   47.0679 C.3     1  ZINC000081577146    0.0600
     25 C25        -0.0360    2.9806   48.4632 C.3     1  ZINC000081577146    0.0500
     26 N26         0.2613    3.0217   51.3641 N.2     1  ZINC000081577146   -0.5400
     27 H27         2.1560    4.3513   53.2225 H       1  ZINC000081577146    0.0900
     28 H28         1.1900    3.5370   54.4762 H       1  ZINC000081577146    0.0900
     29 H29         2.0269    2.5761   53.2333 H       1  ZINC000081577146    0.0900
     30 H30        -0.3895    0.6965   49.7941 H       1  ZINC000081577146    0.0700
     31 H31        -2.1154    0.9461   50.1529 H       1  ZINC000081577146    0.1100
     32 H32        -1.7924   -0.4182   48.0934 H       1  ZINC000081577146    0.1000
     33 H33        -2.6053    1.1253   47.7382 H       1  ZINC000081577146    0.0600
     34 H34         0.3175   -1.2954   46.0900 H       1  ZINC000081577146    0.0800
     35 H35        -1.3987   -1.4843   46.5231 H       1  ZINC000081577146    0.0800
     36 H36        -0.9110   -1.4514   44.8115 H       1  ZINC000081577146    0.0700
     37 H37         1.0874    3.2427   42.6731 H       1  ZINC000081577146    0.1900
     38 H38         3.5816   -0.6431   43.8694 H       1  ZINC000081577146    0.1300
     39 H39         5.7574   -0.9267   42.7579 H       1  ZINC000081577146    0.1300
     40 H40         6.5413    0.7460   41.1333 H       1  ZINC000081577146    0.1300
     41 H41         5.1562    2.7106   40.6106 H       1  ZINC000081577146    0.1300
     42 H42         2.9739    3.0093   41.7052 H       1  ZINC000081577146    0.1300
     43 H43         0.4071    2.6991   46.3732 H       1  ZINC000081577146    0.0900
     44 H44        -1.3188    2.9488   46.7320 H       1  ZINC000081577146    0.0500
     45 H45         0.0842    4.0635   48.4326 H       1  ZINC000081577146    0.1000
     46 H46         0.8970    2.5199   48.7879 H       1  ZINC000081577146    0.0800
@<TRIPOS>BOND
     1     1     2    1
     2     1    27    1
     3     1    28    1
     4     1    29    1
     5     2    26    1
     6     2     3    2
     7     3     4    1
     8     4     5    1
     9     5     6    1
    10     5    26    2
    11     6    25    1
    12     6     7    1
    13     7     8    1
    14     7    30    1
    15     7    31    1
    16     8     9    1
    17     8    32    1
    18     8    33    1
    19     9    10    1
    20     9    24    1
    21    10    11    1
    22    10    12    1
    23    10    13    1
    24    12    34    1
    25    12    35    1
    26    12    36    1
    27    13    23    1
    28    13    14    2
    29    14    15    1
    30    15    16    2
    31    15    37    1
    32    16    17    1
    33    16    23    1
    34    17    22   ar
    35    17    18   ar
    36    18    19   ar
    37    18    38    1
    38    19    20   ar
    39    19    39    1
    40    20    21   ar
    41    20    40    1
    42    21    22   ar
    43    21    41    1
    44    22    42    1
    45    24    25    1
    46    24    43    1
    47    24    44    1
    48    25    45    1
    49    25    46    1
@<TRIPOS>SUBSTRUCTURE
     1 ZINC000081577146        1 TEMP              0 ****  ****    0 ROOT


##########                                Name:    ZINC000599228306
##########                DOCK_Rotatable_Bonds:                   8
##########                         Heavy_Atoms:                  25
##########                    Molecular_Weight:             379.382
##########                DOCK_Rotatable_Bonds:                   8
##########                       Formal_Charge:        -4.09782e-08
##########                     HBond_Acceptors:                  10
##########                        HBond_Donors:                   1
##########                         Heavy_Atoms:                  25
##########                          Grid_Score:          -28.386404
##########                     Grid_vdw_energy:          -28.590332
##########                      Grid_es_energy:            0.203928
##########           Internal_energy_repulsive:           41.828480

@<TRIPOS>MOLECULE
ZINC000599228306
 44 44 1 0 0
SMALL
USER_CHARGES


@<TRIPOS>ATOM
      1 C1         -2.2823    3.8055   51.0460 C.3     1  ZINC000599228306    0.0400
      2 O2         -1.9514    3.2661   49.7392 O.3     1  ZINC000599228306   -0.3500
      3 C3         -1.0156    2.2978   49.6962 C.2     1  ZINC000599228306    0.5100
      4 O4         -0.1499    2.2515   50.5474 O.2     1  ZINC000599228306   -0.4800
      5 C5         -1.0420    1.2936   48.6153 C.ar    1  ZINC000599228306   -0.1500
      6 C6         -1.2726   -0.0516   48.9126 C.ar    1  ZINC000599228306   -0.0100
      7 C7         -1.2958   -0.9858   47.8960 C.ar    1  ZINC000599228306    0.0700
      8 F8         -1.5187   -2.2873   48.1820 F       1  ZINC000599228306   -0.1200
      9 C9         -1.0917   -0.5919   46.5827 C.ar    1  ZINC000599228306    0.0100
     10 C10        -0.8629    0.7376   46.2804 C.ar    1  ZINC000599228306   -0.7100
     11 S11        -0.6052    1.2268   44.6074 S.o2    1  ZINC000599228306    2.7000
     12 O12        -1.5533    0.5092   43.8291 O.2     1  ZINC000599228306   -0.9200
     13 O13        -0.5182    2.6451   44.6128 O.2     1  ZINC000599228306   -0.9300
     14 N14         0.8876    0.6683   44.1578 N.am    1  ZINC000599228306   -1.1000
     15 C15         2.0829    1.1095   44.8806 C.3     1  ZINC000599228306    0.1600
     16 H16         1.7874    1.5800   45.8184 H       1  ZINC000599228306    0.1300
     17 C17         2.9756   -0.0977   45.1749 C.3     1  ZINC000599228306   -0.1700
     18 C18         2.8418    2.1020   44.0380 C.2     1  ZINC000599228306    0.4700
     19 O19         3.7653    1.7313   43.3526 O.2     1  ZINC000599228306   -0.4900
     20 O20         2.4920    3.3978   44.0489 O.3     1  ZINC000599228306   -0.3400
     21 C21         3.2892    4.3027   43.2403 C.3     1  ZINC000599228306    0.1200
     22 C22         3.2211    3.8709   41.7741 C.3     1  ZINC000599228306   -0.1900
     23 C23         2.7438    5.7254   43.3788 C.3     1  ZINC000599228306   -0.1400
     24 C24         4.7430    4.2653   43.7160 C.3     1  ZINC000599228306   -0.1800
     25 C25        -0.8420    1.6850   47.2871 C.ar    1  ZINC000599228306    0.2500
     26 F26        -0.6188    2.9839   46.9902 F       1  ZINC000599228306   -0.0900
     27 H27        -3.0469    4.5748   50.9385 H       1  ZINC000599228306    0.1100
     28 H28        -2.6585    3.0061   51.6845 H       1  ZINC000599228306    0.0700
     29 H29        -1.3899    4.2405   51.4962 H       1  ZINC000599228306    0.0700
     30 H30        -1.4318   -0.3603   49.9352 H       1  ZINC000599228306    0.1700
     31 H31        -1.1110   -1.3270   45.7919 H       1  ZINC000599228306    0.1800
     32 H32         0.9704    0.0490   43.4158 H       1  ZINC000599228306    0.4300
     33 H33         3.8650    0.2306   45.7128 H       1  ZINC000599228306    0.0900
     34 H34         2.4267   -0.8155   45.7845 H       1  ZINC000599228306    0.0700
     35 H35         3.2711   -0.5682   44.2371 H       1  ZINC000599228306    0.0800
     36 H36         2.1855    3.8975   41.4352 H       1  ZINC000599228306    0.0600
     37 H37         3.8197    4.5501   41.1671 H       1  ZINC000599228306    0.0700
     38 H38         3.6098    2.8572   41.6754 H       1  ZINC000599228306    0.0800
     39 H39         2.7923    6.0330   44.4234 H       1  ZINC000599228306    0.0700
     40 H40         3.3423    6.4047   42.7718 H       1  ZINC000599228306    0.0800
     41 H41         1.7081    5.7521   43.0399 H       1  ZINC000599228306    0.0700
     42 H42         5.1315    3.2517   43.6173 H       1  ZINC000599228306    0.0800
     43 H43         5.3415    4.9446   43.1090 H       1  ZINC000599228306    0.0700
     44 H44         4.7915    4.5729   44.7605 H       1  ZINC000599228306    0.0600
@<TRIPOS>BOND
     1     1     2    1
     2     1    27    1
     3     1    28    1
     4     1    29    1
     5     2     3    1
     6     3     4    2
     7     3     5    1
     8     5    25   ar
     9     5     6   ar
    10     6     7   ar
    11     6    30    1
    12     7     8    1
    13     7     9   ar
    14     9    10   ar
    15     9    31    1
    16    10    11    1
    17    10    25   ar
    18    11    12    2
    19    11    13    2
    20    11    14   am
    21    14    15    1
    22    14    32    1
    23    15    16    1
    24    15    17    1
    25    15    18    1
    26    17    33    1
    27    17    34    1
    28    17    35    1
    29    18    19    2
    30    18    20    1
    31    20    21    1
    32    21    22    1
    33    21    23    1
    34    21    24    1
    35    22    36    1
    36    22    37    1
    37    22    38    1
    38    23    39    1
    39    23    40    1
    40    23    41    1
    41    24    42    1
    42    24    43    1
    43    24    44    1
    44    25    26    1
@<TRIPOS>SUBSTRUCTURE
     1 ZINC000599228306        1 TEMP              0 ****  ****    0 ROOT


##########                                Name:    ZINC000632456679
##########                DOCK_Rotatable_Bonds:                   6
##########                         Heavy_Atoms:                  24
##########                    Molecular_Weight:              374.82
##########                DOCK_Rotatable_Bonds:                   6
##########                       Formal_Charge:          -0.0299999
##########                     HBond_Acceptors:                   9
##########                        HBond_Donors:                   1
##########                         Heavy_Atoms:                  24
##########                          Grid_Score:          -28.358776
##########                     Grid_vdw_energy:          -29.195044
##########                      Grid_es_energy:            0.836267
##########           Internal_energy_repulsive:           64.764420

@<TRIPOS>MOLECULE
ZINC000632456679
 40 41 1 0 0
SMALL
USER_CHARGES


@<TRIPOS>ATOM
      1 C1        -11.2141   -0.6716   58.7743 C.3     1  ZINC000632456679   -0.1600
      2 C2        -11.0696   -2.1936   58.8356 C.3     1  ZINC000632456679    0.1900
      3 C3         -9.7006   -2.5985   58.2854 C.3     1  ZINC000632456679   -0.2000
      4 C4        -11.1939   -2.6595   60.2876 C.3     1  ZINC000632456679   -0.6300
      5 S5        -10.1406   -1.6289   61.3455 S.o2    1  ZINC000632456679    2.4100
      6 C6        -11.2685   -0.2826   61.7994 C.3     1  ZINC000632456679   -0.6600
      7 O7         -9.8187   -2.3644   62.5179 O.2     1  ZINC000632456679   -0.9300
      8 O8         -9.0904   -1.0919   60.5531 O.2     1  ZINC000632456679   -0.9300
      9 N9        -12.1231   -2.8168   58.0308 N.am    1  ZINC000632456679   -0.7200
     10 C10       -12.2210   -4.1597   57.9722 C.2     1  ZINC000632456679    0.6200
     11 O11       -11.4339   -4.8539   58.5860 O.2     1  ZINC000632456679   -0.5000
     12 C12       -13.2830   -4.7874   57.1632 C.2     1  ZINC000632456679   -0.0900
     13 C13       -13.7421   -4.3676   55.9468 C.2     1  ZINC000632456679   -0.1300
     14 C14       -14.7506   -5.3154   55.6195 C.2     1  ZINC000632456679    0.0400
     15 C15       -15.5853   -5.3387   54.3927 C.ar    1  ZINC000632456679   -0.0500
     16 C16       -15.8352   -4.1594   53.6945 C.ar    1  ZINC000632456679   -0.0600
     17 C17       -16.6121   -4.1860   52.5540 C.ar    1  ZINC000632456679   -0.1100
     18 C18       -17.1439   -5.3803   52.1023 C.ar    1  ZINC000632456679   -0.0700
     19 C19       -16.9007   -6.5562   52.7899 C.ar    1  ZINC000632456679   -0.0800
     20 Cl20      -17.5720   -8.0508   52.2162 Cl      1  ZINC000632456679   -0.0400
     21 C21       -16.1181   -6.5428   53.9310 C.ar    1  ZINC000632456679    0.1400
     22 F22       -15.8800   -7.6907   54.6026 F       1  ZINC000632456679   -0.1100
     23 N23       -14.7953   -6.1637   56.6160 N.2     1  ZINC000632456679   -0.3200
     24 O24       -13.9886   -5.8913   57.4740 O.3     1  ZINC000632456679    0.1400
     25 H25       -11.1255   -0.3396   57.7399 H       1  ZINC000632456679    0.0900
     26 H26       -12.1893   -0.3832   59.1663 H       1  ZINC000632456679    0.0600
     27 H27       -10.4302   -0.2078   59.3732 H       1  ZINC000632456679    0.0700
     28 H28        -8.9167   -2.1347   58.8843 H       1  ZINC000632456679    0.0800
     29 H29        -9.5976   -3.6827   58.3292 H       1  ZINC000632456679    0.0800
     30 H30        -9.6120   -2.2665   57.2510 H       1  ZINC000632456679    0.0900
     31 H31       -12.2311   -2.5703   60.6104 H       1  ZINC000632456679    0.1600
     32 H32       -10.8779   -3.6999   60.3638 H       1  ZINC000632456679    0.1400
     33 H33       -12.1311   -0.6927   62.3245 H       1  ZINC000632456679    0.1300
     34 H34       -10.7496    0.4229   62.4485 H       1  ZINC000632456679    0.1300
     35 H35       -11.6024    0.2312   60.8980 H       1  ZINC000632456679    0.1300
     36 H36       -12.7504   -2.2630   57.5401 H       1  ZINC000632456679    0.4200
     37 H37       -13.4159   -3.5152   55.3694 H       1  ZINC000632456679    0.1900
     38 H38       -15.4217   -3.2255   54.0453 H       1  ZINC000632456679    0.1500
     39 H39       -16.8056   -3.2715   52.0129 H       1  ZINC000632456679    0.1500
     40 H40       -17.7518   -5.3949   51.2097 H       1  ZINC000632456679    0.1500
@<TRIPOS>BOND
     1     1     2    1
     2     1    25    1
     3     1    26    1
     4     1    27    1
     5     2     3    1
     6     2     4    1
     7     2     9    1
     8     3    28    1
     9     3    29    1
    10     3    30    1
    11     4     5    1
    12     4    31    1
    13     4    32    1
    14     5     6    1
    15     5     7    2
    16     5     8    2
    17     6    33    1
    18     6    34    1
    19     6    35    1
    20     9    10   am
    21     9    36    1
    22    10    11    2
    23    10    12    1
    24    12    24    1
    25    12    13    2
    26    13    14    1
    27    13    37    1
    28    14    15    1
    29    14    23    2
    30    15    21   ar
    31    15    16   ar
    32    16    17   ar
    33    16    38    1
    34    17    18   ar
    35    17    39    1
    36    18    19   ar
    37    18    40    1
    38    19    20    1
    39    19    21   ar
    40    21    22    1
    41    23    24    1
@<TRIPOS>SUBSTRUCTURE
     1 ZINC000632456679        1 TEMP              0 ****  ****    0 ROOT


##########                                Name:    ZINC001074839487
##########                DOCK_Rotatable_Bonds:                   7
##########                         Heavy_Atoms:                  25
##########                    Molecular_Weight:             344.454
##########                DOCK_Rotatable_Bonds:                   7
##########                       Formal_Charge:          -0.0500005
##########                     HBond_Acceptors:                   5
##########                        HBond_Donors:                   1
##########                         Heavy_Atoms:                  25
##########                          Grid_Score:          -28.357294
##########                     Grid_vdw_energy:          -27.184464
##########                      Grid_es_energy:           -1.172830
##########           Internal_energy_repulsive:           90.804199

@<TRIPOS>MOLECULE
ZINC001074839487
 53 55 1 0 0
SMALL
USER_CHARGES


@<TRIPOS>ATOM
      1 C1          5.9689   -0.0282   54.6711 C.3     1  ZINC001074839487   -0.1500
      2 C2          6.0584   -0.3105   53.1700 C.3     1  ZINC001074839487   -0.1300
      3 C3          5.5701    0.9125   52.3911 C.3     1  ZINC001074839487   -0.1100
      4 C4          4.0788    0.7602   52.0849 C.3     1  ZINC001074839487   -0.1400
      5 C5          3.5658    2.0242   51.4446 C.2     1  ZINC001074839487    0.5100
      6 O6          4.3321    2.9291   51.1897 O.2     1  ZINC001074839487   -0.5400
      7 N7          2.2554    2.1492   51.1550 N.am    1  ZINC001074839487   -0.7300
      8 C8          1.7571    3.3772   50.5308 C.3     1  ZINC001074839487    0.1400
      9 H9          2.1591    4.2419   51.0588 H       1  ZINC001074839487    0.0900
     10 C10         2.2014    3.4218   49.0670 C.3     1  ZINC001074839487   -0.1500
     11 C11         1.6633    2.1875   48.3364 C.3     1  ZINC001074839487    0.0700
     12 N12         0.2074    2.1247   48.5234 N.am    1  ZINC001074839487   -0.6000
     13 C13        -0.6179    2.0303   47.4620 C.2     1  ZINC001074839487    0.5600
     14 O14        -1.8206    1.9789   47.6299 O.2     1  ZINC001074839487   -0.5200
     15 C15        -0.0602    1.9893   46.0934 C.ar    1  ZINC001074839487   -0.1300
     16 C16         0.1883    0.7633   45.4745 C.ar    1  ZINC001074839487   -0.1000
     17 C17         0.7092    0.7307   44.1966 C.ar    1  ZINC001074839487   -0.1000
     18 C18         0.9843    1.9086   43.5304 C.ar    1  ZINC001074839487   -0.1100
     19 C19         1.5450    2.1983   42.1572 C.3     1  ZINC001074839487    0.0900
     20 O20         1.9901    3.5666   42.1919 O.3     1  ZINC001074839487   -0.3600
     21 C21         1.1421    4.2092   43.1612 C.3     1  ZINC001074839487    0.0900
     22 C22         0.7395    3.1311   44.1405 C.ar    1  ZINC001074839487   -0.1400
     23 C23         0.2149    3.1772   45.4123 C.ar    1  ZINC001074839487   -0.0400
     24 C24        -0.3320    2.1672   49.8894 C.3     1  ZINC001074839487    0.1500
     25 H25        -0.0343    1.2674   50.4279 H       1  ZINC001074839487    0.0700
     26 C26        -1.8585    2.2548   49.8357 C.3     1  ZINC001074839487   -0.1400
     27 C27         0.2285    3.4016   50.6026 C.3     1  ZINC001074839487   -0.1400
     28 H28         6.5921    0.8316   54.9168 H       1  ZINC001074839487    0.0500
     29 H29         6.3167   -0.8995   55.2260 H       1  ZINC001074839487    0.0500
     30 H30         4.9342    0.1845   54.9398 H       1  ZINC001074839487    0.0500
     31 H31         7.0931   -0.5231   52.9013 H       1  ZINC001074839487    0.0600
     32 H32         5.4351   -1.1703   52.9243 H       1  ZINC001074839487    0.0600
     33 H33         5.7286    1.8106   52.9881 H       1  ZINC001074839487    0.0700
     34 H34         6.1262    0.9942   51.4571 H       1  ZINC001074839487    0.0700
     35 H35         3.9315   -0.0779   51.4038 H       1  ZINC001074839487    0.0900
     36 H36         3.5348    0.5756   53.0112 H       1  ZINC001074839487    0.0900
     37 H37         1.6424    1.4259   51.3599 H       1  ZINC001074839487    0.4000
     38 H38         1.8101    4.3231   48.5953 H       1  ZINC001074839487    0.0800
     39 H39         3.2902    3.4280   49.0174 H       1  ZINC001074839487    0.0800
     40 H40         1.8922    2.2634   47.2734 H       1  ZINC001074839487    0.1200
     41 H41         2.1237    1.2894   48.7482 H       1  ZINC001074839487    0.0700
     42 H42        -0.0270   -0.1586   45.9946 H       1  ZINC001074839487    0.1500
     43 H43         0.9015   -0.2176   43.7168 H       1  ZINC001074839487    0.1400
     44 H44         2.3844    1.5355   41.9467 H       1  ZINC001074839487    0.1000
     45 H45         0.7695    2.0748   41.4012 H       1  ZINC001074839487    0.0800
     46 H46         1.6906    4.9981   43.6758 H       1  ZINC001074839487    0.1000
     47 H47         0.2592    4.6217   42.6729 H       1  ZINC001074839487    0.0800
     48 H48         0.0204    4.1292   45.8839 H       1  ZINC001074839487    0.1400
     49 H49        -2.2614    1.3290   49.4248 H       1  ZINC001074839487    0.0800
     50 H50        -2.2494    2.4061   50.8419 H       1  ZINC001074839487    0.0500
     51 H51        -2.1523    3.0916   49.2021 H       1  ZINC001074839487    0.0700
     52 H52        -0.0868    3.3935   51.6460 H       1  ZINC001074839487    0.0900
     53 H53        -0.1441    4.3032   50.1165 H       1  ZINC001074839487    0.0900
@<TRIPOS>BOND
     1     1     2    1
     2     1    28    1
     3     1    29    1
     4     1    30    1
     5     2     3    1
     6     2    31    1
     7     2    32    1
     8     3     4    1
     9     3    33    1
    10     3    34    1
    11     4     5    1
    12     4    35    1
    13     4    36    1
    14     5     6    2
    15     5     7   am
    16     7     8    1
    17     7    37    1
    18     8     9    1
    19     8    27    1
    20     8    10    1
    21    10    11    1
    22    10    38    1
    23    10    39    1
    24    11    12    1
    25    11    40    1
    26    11    41    1
    27    12    13   am
    28    12    24    1
    29    13    14    2
    30    13    15    1
    31    15    23   ar
    32    15    16   ar
    33    16    17   ar
    34    16    42    1
    35    17    18   ar
    36    17    43    1
    37    18    22   ar
    38    18    19    1
    39    19    20    1
    40    19    44    1
    41    19    45    1
    42    20    21    1
    43    21    22    1
    44    21    46    1
    45    21    47    1
    46    22    23   ar
    47    23    48    1
    48    24    25    1
    49    24    26    1
    50    24    27    1
    51    26    49    1
    52    26    50    1
    53    26    51    1
    54    27    52    1
    55    27    53    1
@<TRIPOS>SUBSTRUCTURE
     1 ZINC001074839487        1 TEMP              0 ****  ****    0 ROOT


##########                                Name:    ZINC000114394234
##########                DOCK_Rotatable_Bonds:                   9
##########                         Heavy_Atoms:                  27
##########                    Molecular_Weight:             365.392
##########                DOCK_Rotatable_Bonds:                   9
##########                       Formal_Charge:           0.0300002
##########                     HBond_Acceptors:                   8
##########                        HBond_Donors:                   3
##########                         Heavy_Atoms:                  27
##########                          Grid_Score:          -28.346504
##########                     Grid_vdw_energy:          -27.040258
##########                      Grid_es_energy:           -1.306245
##########           Internal_energy_repulsive:            9.973955

@<TRIPOS>MOLECULE
ZINC000114394234
 46 48 1 0 0
SMALL
USER_CHARGES


@<TRIPOS>ATOM
      1 C1         -8.9404   -0.9471   61.9185 C.3     1  ZINC000114394234   -0.1600
      2 C2        -10.0328   -1.4671   60.9819 C.3     1  ZINC000114394234    0.1300
      3 H3        -10.1283   -2.5467   61.0990 H       1  ZINC000114394234    0.1200
      4 N4        -11.3073   -0.8254   61.3144 N.am    1  ZINC000114394234   -0.7100
      5 C5        -12.4000   -1.5786   61.5491 C.2     1  ZINC000114394234    0.5200
      6 O6        -12.3287   -2.7876   61.4834 O.2     1  ZINC000114394234   -0.5100
      7 C7        -13.7104   -0.9187   61.8928 C.3     1  ZINC000114394234    0.0400
      8 O8        -14.6741   -1.9191   62.2283 O.3     1  ZINC000114394234   -0.2900
      9 C9        -15.5168   -2.3200   61.2403 C.ar    1  ZINC000114394234    0.1300
     10 C10       -15.0866   -2.3292   59.9214 C.ar    1  ZINC000114394234   -0.2100
     11 C11       -15.9450   -2.7376   58.9190 C.ar    1  ZINC000114394234   -0.0800
     12 C12       -17.2319   -3.1366   59.2292 C.ar    1  ZINC000114394234   -0.1600
     13 C13       -17.6632   -3.1278   60.5428 C.ar    1  ZINC000114394234   -0.0800
     14 C14       -16.8067   -2.7261   61.5496 C.ar    1  ZINC000114394234   -0.1500
     15 C15        -9.6661   -1.1469   59.5558 C.2     1  ZINC000114394234    0.5100
     16 O16        -8.7589   -1.7429   59.0144 O.2     1  ZINC000114394234   -0.5100
     17 N17       -10.3461   -0.1984   58.8818 N.am    1  ZINC000114394234   -0.6700
     18 C18       -10.0055    0.0988   57.5574 C.ar    1  ZINC000114394234    0.1300
     19 C19       -10.6601   -0.5398   56.5116 C.ar    1  ZINC000114394234   -0.1200
     20 C20       -10.3264   -0.2488   55.2022 C.ar    1  ZINC000114394234   -0.1000
     21 C21        -9.3409    0.6775   54.9264 C.ar    1  ZINC000114394234   -0.0900
     22 C22        -8.6786    1.3227   55.9695 C.ar    1  ZINC000114394234    0.0000
     23 C23        -7.6183    2.3184   55.6746 C.2     1  ZINC000114394234    0.2700
     24 N24        -7.7720    3.4139   54.9637 N.2     1  ZINC000114394234   -0.3000
     25 N25        -6.5239    4.0572   54.9380 N.pl3   1  ZINC000114394234   -0.4800
     26 C26        -5.6825    3.2879   55.6520 C.2     1  ZINC000114394234    0.2700
     27 N27        -6.3474    2.2531   56.0935 N.2     1  ZINC000114394234   -0.5300
     28 C28        -9.0185    1.0352   57.2883 C.ar    1  ZINC000114394234   -0.0800
     29 H29        -8.8450    0.1323   61.8015 H       1  ZINC000114394234    0.0700
     30 H30        -9.2056   -1.1788   62.9501 H       1  ZINC000114394234    0.0800
     31 H31        -7.9923   -1.4246   61.6711 H       1  ZINC000114394234    0.0800
     32 H32       -11.3645    0.1415   61.3657 H       1  ZINC000114394234    0.4100
     33 H33       -13.5690   -0.2508   62.7426 H       1  ZINC000114394234    0.1000
     34 H34       -14.0647   -0.3459   61.0357 H       1  ZINC000114394234    0.1000
     35 H35       -14.0816   -2.0170   59.6784 H       1  ZINC000114394234    0.1300
     36 H36       -15.6105   -2.7450   57.8921 H       1  ZINC000114394234    0.1300
     37 H37       -17.9016   -3.4552   58.4441 H       1  ZINC000114394234    0.1300
     38 H38       -18.6691   -3.4395   60.7826 H       1  ZINC000114394234    0.1300
     39 H39       -17.1441   -2.7195   62.5756 H       1  ZINC000114394234    0.1300
     40 H40       -11.0717    0.2781   59.3146 H       1  ZINC000114394234    0.4200
     41 H41       -11.4315   -1.2658   56.7222 H       1  ZINC000114394234    0.1300
     42 H42       -10.8381   -0.7478   54.3925 H       1  ZINC000114394234    0.1400
     43 H43        -9.0824    0.9021   53.9021 H       1  ZINC000114394234    0.1400
     44 H44        -6.3105    4.8921   54.4927 H       1  ZINC000114394234    0.4400
     45 H45        -4.6377    3.4928   55.8334 H       1  ZINC000114394234    0.2300
     46 H46        -8.5083    1.5326   58.0999 H       1  ZINC000114394234    0.1500
@<TRIPOS>BOND
     1     1     2    1
     2     1    29    1
     3     1    30    1
     4     1    31    1
     5     2     3    1
     6     2     4    1
     7     2    15    1
     8     4     5   am
     9     4    32    1
    10     5     6    2
    11     5     7    1
    12     7     8    1
    13     7    33    1
    14     7    34    1
    15     8     9    1
    16     9    14   ar
    17     9    10   ar
    18    10    11   ar
    19    10    35    1
    20    11    12   ar
    21    11    36    1
    22    12    13   ar
    23    12    37    1
    24    13    14   ar
    25    13    38    1
    26    14    39    1
    27    15    16    2
    28    15    17   am
    29    17    18    1
    30    17    40    1
    31    18    28   ar
    32    18    19   ar
    33    19    20   ar
    34    19    41    1
    35    20    21   ar
    36    20    42    1
    37    21    22   ar
    38    21    43    1
    39    22    23    1
    40    22    28   ar
    41    23    27    1
    42    23    24    2
    43    24    25    1
    44    25    26    1
    45    25    44    1
    46    26    27    2
    47    26    45    1
    48    28    46    1
@<TRIPOS>SUBSTRUCTURE
     1 ZINC000114394234        1 TEMP              0 ****  ****    0 ROOT


##########                                Name:    ZINC001009984555
##########                DOCK_Rotatable_Bonds:                   7
##########                         Heavy_Atoms:                  23
##########                    Molecular_Weight:             338.446
##########                DOCK_Rotatable_Bonds:                   7
##########                       Formal_Charge:           0.0400002
##########                     HBond_Acceptors:                   6
##########                        HBond_Donors:                   1
##########                         Heavy_Atoms:                  23
##########                          Grid_Score:          -28.337381
##########                     Grid_vdw_energy:          -27.401850
##########                      Grid_es_energy:           -0.935532
##########           Internal_energy_repulsive:           10.277603

@<TRIPOS>MOLECULE
ZINC001009984555
 46 47 1 0 0
SMALL
USER_CHARGES


@<TRIPOS>ATOM
      1 C1        -16.3614   -1.0879   62.4551 C.3     1  ZINC001009984555   -0.1400
      2 S2        -14.9413   -1.1679   63.5810 S.3     1  ZINC001009984555   -0.1800
      3 C3        -14.0922    0.4065   63.2792 C.3     1  ZINC001009984555   -0.1300
      4 C4        -12.8698    0.4941   64.1561 C.2     1  ZINC001009984555    0.5500
      5 O5        -12.9522    0.9793   65.2646 O.2     1  ZINC001009984555   -0.5100
      6 N6        -11.6849    0.0334   63.7087 N.am    1  ZINC001009984555   -0.6100
      7 C7        -11.4419   -0.5699   62.3857 C.3     1  ZINC001009984555    0.1000
      8 C8         -9.9310   -0.3520   62.1220 C.3     1  ZINC001009984555   -0.1100
      9 H9         -9.7397    0.6567   61.7559 H       1  ZINC001009984555    0.1000
     10 C10        -9.3881   -1.3984   61.1466 C.3     1  ZINC001009984555    0.1300
     11 N11       -10.0067   -1.2083   59.8323 N.am    1  ZINC001009984555   -0.7300
     12 C12        -9.6449   -1.9923   58.7974 C.2     1  ZINC001009984555    0.5600
     13 O13        -8.8062   -2.8579   58.9549 O.2     1  ZINC001009984555   -0.5200
     14 C14       -10.2679   -1.7993   57.4706 C.ar    1  ZINC001009984555   -0.1200
     15 C15       -11.2260   -2.7027   57.0085 C.ar    1  ZINC001009984555   -0.0900
     16 C16       -11.8045   -2.5181   55.7694 C.ar    1  ZINC001009984555   -0.1000
     17 C17       -11.4370   -1.4405   54.9843 C.ar    1  ZINC001009984555   -0.1200
     18 C18       -10.4863   -0.5390   55.4361 C.ar    1  ZINC001009984555    0.0900
     19 F19       -10.1320    0.5114   54.6639 F       1  ZINC001009984555   -0.1300
     20 C20        -9.9045   -0.7098   56.6777 C.ar    1  ZINC001009984555   -0.0500
     21 C21        -8.8708    0.2707   57.1689 C.3     1  ZINC001009984555   -0.1200
     22 C22        -9.3353   -0.5511   63.5408 C.3     1  ZINC001009984555   -0.1200
     23 C23       -10.4194    0.0550   64.4566 C.3     1  ZINC001009984555    0.1400
     24 H24       -10.5187   -0.5453   65.3610 H       1  ZINC001009984555    0.0800
     25 C25       -10.0453    1.4921   64.8250 C.3     1  ZINC001009984555   -0.1700
     26 H26       -16.0066   -0.9933   61.4290 H       1  ZINC001009984555    0.0800
     27 H27       -16.9538   -1.9977   62.5524 H       1  ZINC001009984555    0.1100
     28 H28       -16.9771   -0.2247   62.7078 H       1  ZINC001009984555    0.0800
     29 H29       -13.7933    0.4633   62.2326 H       1  ZINC001009984555    0.1100
     30 H30       -14.7650    1.2323   63.5103 H       1  ZINC001009984555    0.1100
     31 H31       -11.6737   -1.6348   62.4059 H       1  ZINC001009984555    0.0800
     32 H32       -12.0364   -0.0657   61.6238 H       1  ZINC001009984555    0.0800
     33 H33        -8.3072   -1.2872   61.0590 H       1  ZINC001009984555    0.0800
     34 H34        -9.6218   -2.3964   61.5173 H       1  ZINC001009984555    0.0800
     35 H35       -10.6768   -0.5182   59.7069 H       1  ZINC001009984555    0.4000
     36 H36       -11.5140   -3.5453   57.6196 H       1  ZINC001009984555    0.1300
     37 H37       -12.5459   -3.2172   55.4117 H       1  ZINC001009984555    0.1400
     38 H38       -11.8924   -1.3013   54.0149 H       1  ZINC001009984555    0.1400
     39 H39        -9.3475    1.0079   57.8150 H       1  ZINC001009984555    0.0800
     40 H40        -8.1028   -0.2617   57.7299 H       1  ZINC001009984555    0.1000
     41 H41        -8.4147    0.7750   56.3171 H       1  ZINC001009984555    0.0600
     42 H42        -9.1932   -1.6105   63.7542 H       1  ZINC001009984555    0.0900
     43 H43        -8.3969   -0.0063   63.6450 H       1  ZINC001009984555    0.0900
     44 H44        -9.9653    2.0907   63.9174 H       1  ZINC001009984555    0.0600
     45 H45       -10.8150    1.9135   65.4714 H       1  ZINC001009984555    0.0700
     46 H46        -9.0892    1.4960   65.3481 H       1  ZINC001009984555    0.0700
@<TRIPOS>BOND
     1     1     2    1
     2     1    26    1
     3     1    27    1
     4     1    28    1
     5     2     3    1
     6     3     4    1
     7     3    29    1
     8     3    30    1
     9     4     5    2
    10     4     6   am
    11     6    23    1
    12     6     7    1
    13     7     8    1
    14     7    31    1
    15     7    32    1
    16     8     9    1
    17     8    10    1
    18     8    22    1
    19    10    11    1
    20    10    33    1
    21    10    34    1
    22    11    12   am
    23    11    35    1
    24    12    13    2
    25    12    14    1
    26    14    20   ar
    27    14    15   ar
    28    15    16   ar
    29    15    36    1
    30    16    17   ar
    31    16    37    1
    32    17    18   ar
    33    17    38    1
    34    18    19    1
    35    18    20   ar
    36    20    21    1
    37    21    39    1
    38    21    40    1
    39    21    41    1
    40    22    23    1
    41    22    42    1
    42    22    43    1
    43    23    24    1
    44    23    25    1
    45    25    44    1
    46    25    45    1
    47    25    46    1
@<TRIPOS>SUBSTRUCTURE
     1 ZINC001009984555        1 TEMP              0 ****  ****    0 ROOT


##########                                Name:    ZINC001574157642
##########                DOCK_Rotatable_Bonds:                   9
##########                         Heavy_Atoms:                  28
##########                    Molecular_Weight:             387.445
##########                DOCK_Rotatable_Bonds:                   9
##########                       Formal_Charge:          -0.0400004
##########                     HBond_Acceptors:                  11
##########                        HBond_Donors:                   4
##########                         Heavy_Atoms:                  28
##########                          Grid_Score:          -28.313139
##########                     Grid_vdw_energy:          -27.921556
##########                      Grid_es_energy:           -0.391582
##########           Internal_energy_repulsive:            9.832626

@<TRIPOS>MOLECULE
ZINC001574157642
 53 55 1 0 0
SMALL
USER_CHARGES


@<TRIPOS>ATOM
      1 C1        -13.3298   -3.8525   56.6964 C.3     1  ZINC001574157642   -0.1400
      2 C2        -13.1846   -2.7004   57.6928 C.3     1  ZINC001574157642   -0.0900
      3 C3        -14.5563   -2.3538   58.2751 C.3     1  ZINC001574157642   -0.1500
      4 C4        -12.2419   -3.1191   58.8227 C.3     1  ZINC001574157642   -0.1300
      5 C5        -11.2823   -1.9699   59.1385 C.3     1  ZINC001574157642    0.1300
      6 H6        -11.7116   -1.0313   58.7880 H       1  ZINC001574157642    0.1100
      7 C7         -9.9456   -2.2136   58.4351 C.3     1  ZINC001574157642    0.1100
      8 N8         -9.2930   -0.9295   58.1684 N.pl3   1  ZINC001574157642   -0.7100
      9 C9         -9.4314   -0.3247   56.9252 C.ar    1  ZINC001574157642    0.3700
     10 C10        -8.6293    0.7638   56.5869 C.ar    1  ZINC001574157642    0.0000
     11 N11        -8.7604    1.3384   55.4078 N.ar    1  ZINC001574157642   -0.3700
     12 C12        -9.6581    0.8790   54.5404 C.ar    1  ZINC001574157642    0.0800
     13 C13        -9.8057    1.5253   53.2127 C.2     1  ZINC001574157642    0.2300
     14 N14        -9.1426    2.5753   52.7699 N.2     1  ZINC001574157642   -0.2700
     15 N15        -9.5556    2.8275   51.5756 N.pl3   1  ZINC001574157642   -0.2300
     16 N16       -10.4591    1.9710   51.2475 N.2     1  ZINC001574157642   -0.0400
     17 N17       -10.6350    1.1515   52.2278 N.2     1  ZINC001574157642   -0.2600
     18 C18       -10.4593   -0.2091   54.8785 C.ar    1  ZINC001574157642    0.1600
     19 N19       -10.3238   -0.7871   56.0581 N.ar    1  ZINC001574157642   -0.5000
     20 N20       -11.0665   -1.8977   60.5858 N.am    1  ZINC001574157642   -0.7300
     21 C21       -10.8466   -0.7060   61.1757 C.2     1  ZINC001574157642    0.5200
     22 O22       -10.8259    0.3064   60.5083 O.2     1  ZINC001574157642   -0.5100
     23 C23       -10.6263   -0.6316   62.6646 C.3     1  ZINC001574157642   -0.1300
     24 H24       -11.2258   -1.3943   63.1616 H       1  ZINC001574157642    0.1100
     25 C25       -11.0321    0.7559   63.1760 C.3     1  ZINC001574157642   -0.1000
     26 C26       -10.9724    0.7443   64.7055 C.3     1  ZINC001574157642   -0.1400
     27 C27        -9.6646    0.1639   65.1615 C.2     1  ZINC001574157642    0.5200
     28 O28        -9.3117    0.3709   66.3033 O.2     1  ZINC001574157642   -0.5500
     29 N29        -8.8706   -0.5673   64.3783 N.am    1  ZINC001574157642   -0.7200
     30 C30        -9.1465   -0.8586   62.9764 C.3     1  ZINC001574157642    0.1200
     31 H31       -13.7388   -4.7246   57.2065 H       1  ZINC001574157642    0.0400
     32 H32       -14.0014   -3.5542   55.8915 H       1  ZINC001574157642    0.0500
     33 H33       -12.3526   -4.0994   56.2815 H       1  ZINC001574157642    0.0700
     34 H34       -12.7755   -1.8283   57.1827 H       1  ZINC001574157642    0.0700
     35 H35       -14.9653   -3.2259   58.7852 H       1  ZINC001574157642    0.0500
     36 H36       -14.4529   -1.5331   58.9849 H       1  ZINC001574157642    0.0500
     37 H37       -15.2279   -2.0556   57.4701 H       1  ZINC001574157642    0.0500
     38 H38       -12.8247   -3.3604   59.7116 H       1  ZINC001574157642    0.0700
     39 H39       -11.6708   -3.9946   58.5139 H       1  ZINC001574157642    0.0800
     40 H40        -9.3046   -2.8214   59.0736 H       1  ZINC001574157642    0.0800
     41 H41       -10.1202   -2.7349   57.4938 H       1  ZINC001574157642    0.0900
     42 H42        -8.7641   -0.5013   58.8597 H       1  ZINC001574157642    0.4100
     43 H43        -7.9004    1.1368   57.2911 H       1  ZINC001574157642    0.1700
     44 H44        -9.2362    3.5497   51.0122 H       1  ZINC001574157642    0.4800
     45 H45       -11.1886   -0.5822   54.1747 H       1  ZINC001574157642    0.1800
     46 H46       -11.0818   -2.7076   61.1194 H       1  ZINC001574157642    0.4000
     47 H47       -10.3432    1.5061   62.7876 H       1  ZINC001574157642    0.0800
     48 H48       -12.0466    0.9849   62.8501 H       1  ZINC001574157642    0.0900
     49 H49       -11.0659    1.7640   65.0793 H       1  ZINC001574157642    0.1100
     50 H50       -11.7920    0.1405   65.0953 H       1  ZINC001574157642    0.1000
     51 H51        -8.0591   -0.9305   64.7660 H       1  ZINC001574157642    0.4000
     52 H52        -8.8841   -1.8954   62.7655 H       1  ZINC001574157642    0.0800
     53 H53        -8.5449   -0.2028   62.3470 H       1  ZINC001574157642    0.0700
@<TRIPOS>BOND
     1     1     2    1
     2     1    31    1
     3     1    32    1
     4     1    33    1
     5     2     3    1
     6     2     4    1
     7     2    34    1
     8     3    35    1
     9     3    36    1
    10     3    37    1
    11     4     5    1
    12     4    38    1
    13     4    39    1
    14     5     6    1
    15     5     7    1
    16     5    20    1
    17     7     8    1
    18     7    40    1
    19     7    41    1
    20     8     9    1
    21     8    42    1
    22     9    19   ar
    23     9    10   ar
    24    10    11   ar
    25    10    43    1
    26    11    12   ar
    27    12    13    1
    28    12    18   ar
    29    13    17    1
    30    13    14    2
    31    14    15    1
    32    15    16    1
    33    15    44    1
    34    16    17    2
    35    18    19   ar
    36    18    45    1
    37    20    21   am
    38    20    46    1
    39    21    22    2
    40    21    23    1
    41    23    24    1
    42    23    30    1
    43    23    25    1
    44    25    26    1
    45    25    47    1
    46    25    48    1
    47    26    27    1
    48    26    49    1
    49    26    50    1
    50    27    28    2
    51    27    29   am
    52    29    30    1
    53    29    51    1
    54    30    52    1
    55    30    53    1
@<TRIPOS>SUBSTRUCTURE
     1 ZINC001574157642        1 TEMP              0 ****  ****    0 ROOT


##########                                Name:    ZINC000482139334
##########                DOCK_Rotatable_Bonds:                   4
##########                         Heavy_Atoms:                  26
##########                    Molecular_Weight:             348.376
##########                DOCK_Rotatable_Bonds:                   4
##########                       Formal_Charge:           0.0300002
##########                     HBond_Acceptors:                   5
##########                        HBond_Donors:                   1
##########                         Heavy_Atoms:                  26
##########                          Grid_Score:          -28.308119
##########                     Grid_vdw_energy:          -26.713608
##########                      Grid_es_energy:           -1.594511
##########           Internal_energy_repulsive:           13.858151

@<TRIPOS>MOLECULE
ZINC000482139334
 43 47 1 0 0
SMALL
USER_CHARGES


@<TRIPOS>ATOM
      1 O1        -11.4791   -5.1116   58.5923 O.2     1  ZINC000482139334   -0.4800
      2 C2        -11.7134   -3.9491   58.3384 C.2     1  ZINC000482139334    0.5500
      3 N3        -12.6846   -3.6340   57.4587 N.am    1  ZINC000482139334   -0.6100
      4 C4        -13.4118   -4.6387   56.8397 C.2     1  ZINC000482139334    0.4300
      5 N5        -14.1698   -4.4886   55.7840 N.2     1  ZINC000482139334   -0.4800
      6 C6        -14.7163   -5.6928   55.4714 C.2     1  ZINC000482139334    0.0400
      7 C7        -15.6389   -5.9729   54.3438 C.ar    1  ZINC000482139334   -0.0500
      8 C8        -16.1293   -7.2614   54.1451 C.ar    1  ZINC000482139334   -0.0800
      9 C9        -16.9880   -7.5166   53.0946 C.ar    1  ZINC000482139334   -0.1300
     10 C10       -17.3619   -6.4964   52.2390 C.ar    1  ZINC000482139334   -0.0800
     11 C11       -16.8788   -5.2144   52.4293 C.ar    1  ZINC000482139334   -0.1600
     12 C12       -16.0235   -4.9452   53.4812 C.ar    1  ZINC000482139334    0.1300
     13 F13       -15.5518   -3.6929   53.6670 F       1  ZINC000482139334   -0.1200
     14 C14       -14.2630   -6.5900   56.3785 C.2     1  ZINC000482139334   -0.0600
     15 O15       -13.4477   -5.9242   57.2227 O.3     1  ZINC000482139334   -0.1800
     16 C16       -10.9228   -2.8567   59.0113 C.3     1  ZINC000482139334   -0.1800
     17 H17        -9.8969   -3.1131   59.2754 H       1  ZINC000482139334    0.1400
     18 C18       -11.2033   -1.4138   58.5826 C.3     1  ZINC000482139334   -0.1200
     19 C19       -11.6753   -1.9153   59.9436 C.3     1  ZINC000482139334   -0.0500
     20 C20       -13.1705   -2.1163   60.2420 C.3     1  ZINC000482139334   -0.0700
     21 C21       -13.4099   -1.1198   61.3979 C.3     1  ZINC000482139334   -0.0900
     22 C22       -12.0618   -0.9565   62.0680 C.ar    1  ZINC000482139334   -0.0800
     23 C23       -11.7352   -0.4479   63.3133 C.ar    1  ZINC000482139334   -0.1100
     24 C24       -10.4160   -0.3945   63.7195 C.ar    1  ZINC000482139334   -0.1100
     25 C25        -9.4174   -0.8503   62.8797 C.ar    1  ZINC000482139334   -0.1200
     26 C26        -9.7405   -1.3585   61.6367 C.ar    1  ZINC000482139334   -0.1000
     27 C27       -11.0620   -1.4137   61.2270 C.ar    1  ZINC000482139334   -0.0700
     28 H28       -12.8747   -2.7041   57.2586 H       1  ZINC000482139334    0.4400
     29 H29       -15.8381   -8.0598   54.8117 H       1  ZINC000482139334    0.1300
     30 H30       -17.3684   -8.5156   52.9404 H       1  ZINC000482139334    0.1400
     31 H31       -18.0337   -6.7017   51.4185 H       1  ZINC000482139334    0.1400
     32 H32       -17.1737   -4.4217   51.7577 H       1  ZINC000482139334    0.1400
     33 H33       -14.5057   -7.6417   56.4172 H       1  ZINC000482139334    0.2200
     34 H34       -10.3621   -0.7209   58.5655 H       1  ZINC000482139334    0.1200
     35 H35       -11.9597   -1.2548   57.8139 H       1  ZINC000482139334    0.1100
     36 H36       -13.7776   -1.8574   59.3746 H       1  ZINC000482139334    0.0800
     37 H37       -13.3678   -3.1388   60.5641 H       1  ZINC000482139334    0.0900
     38 H38       -13.7559   -0.1631   61.0067 H       1  ZINC000482139334    0.0800
     39 H39       -14.1356   -1.5257   62.1027 H       1  ZINC000482139334    0.0800
     40 H40       -12.5150   -0.0910   63.9699 H       1  ZINC000482139334    0.1200
     41 H41       -10.1653    0.0032   64.6917 H       1  ZINC000482139334    0.1300
     42 H42        -8.3853   -0.8089   63.1951 H       1  ZINC000482139334    0.1300
     43 H43        -8.9590   -1.7140   60.9813 H       1  ZINC000482139334    0.1200
@<TRIPOS>BOND
     1     1     2    2
     2     2     3   am
     3     2    16    1
     4     3     4    1
     5     3    28    1
     6     4    15    1
     7     4     5    2
     8     5     6    1
     9     6     7    1
    10     6    14    2
    11     7    12   ar
    12     7     8   ar
    13     8     9   ar
    14     8    29    1
    15     9    10   ar
    16     9    30    1
    17    10    11   ar
    18    10    31    1
    19    11    12   ar
    20    11    32    1
    21    12    13    1
    22    14    15    1
    23    14    33    1
    24    16    17    1
    25    16    19    1
    26    16    18    1
    27    18    19    1
    28    18    34    1
    29    18    35    1
    30    19    27    1
    31    19    20    1
    32    20    21    1
    33    20    36    1
    34    20    37    1
    35    21    22    1
    36    21    38    1
    37    21    39    1
    38    22    27   ar
    39    22    23   ar
    40    23    24   ar
    41    23    40    1
    42    24    25   ar
    43    24    41    1
    44    25    26   ar
    45    25    42    1
    46    26    27   ar
    47    26    43    1
@<TRIPOS>SUBSTRUCTURE
     1 ZINC000482139334        1 TEMP              0 ****  ****    0 ROOT


##########                                Name:    ZINC001162683355
##########                DOCK_Rotatable_Bonds:                   5
##########                         Heavy_Atoms:                  25
##########                    Molecular_Weight:             336.437
##########                DOCK_Rotatable_Bonds:                   5
##########                       Formal_Charge:          -0.0100002
##########                     HBond_Acceptors:                   5
##########                        HBond_Donors:                   1
##########                         Heavy_Atoms:                  25
##########                          Grid_Score:          -28.281704
##########                     Grid_vdw_energy:          -27.630400
##########                      Grid_es_energy:           -0.651304
##########           Internal_energy_repulsive:           11.889481

@<TRIPOS>MOLECULE
ZINC001162683355
 49 52 1 0 0
SMALL
USER_CHARGES


@<TRIPOS>ATOM
      1 C1        -14.7739   -6.6347   56.3305 C.3     1  ZINC001162683355    0.0200
      2 N2        -15.1483   -5.2209   56.4684 N.3     1  ZINC001162683355   -0.5400
      3 C3        -14.4448   -4.3907   55.4799 C.3     1  ZINC001162683355    0.0100
      4 C4        -14.9079   -2.9381   55.6193 C.3     1  ZINC001162683355    0.0600
      5 O5        -14.6776   -2.4960   56.9597 O.3     1  ZINC001162683355   -0.3800
      6 C6        -15.3484   -3.2820   57.9485 C.3     1  ZINC001162683355    0.0800
      7 H7        -16.4253   -3.2252   57.7894 H       1  ZINC001162683355    0.0700
      8 C8        -15.0091   -2.7486   59.3417 C.3     1  ZINC001162683355    0.1500
      9 N9        -13.5768   -2.4495   59.4147 N.pl3   1  ZINC001162683355   -0.7300
     10 C10       -13.0504   -1.8416   60.5491 C.ar    1  ZINC001162683355    0.4300
     11 C11       -11.6781   -1.9064   60.8016 C.ar    1  ZINC001162683355   -0.0100
     12 C12       -11.1789   -1.2802   61.9583 C.ar    1  ZINC001162683355   -0.0400
     13 C13       -12.0772   -0.6190   62.8066 C.ar    1  ZINC001162683355   -0.1800
     14 C14       -13.4023   -0.6062   62.4813 C.ar    1  ZINC001162683355    0.1000
     15 N15       -13.8501   -1.2027   61.3870 N.ar    1  ZINC001162683355   -0.5400
     16 C16        -9.7376   -1.5115   61.9551 C.2     1  ZINC001162683355   -0.2200
     17 C17        -9.4584   -2.2336   60.8552 C.2     1  ZINC001162683355    0.0800
     18 N18       -10.6049   -2.4732   60.1528 N.pl3   1  ZINC001162683355   -0.4600
     19 C19       -10.6817   -3.2267   58.8987 C.3     1  ZINC001162683355    0.1500
     20 C20       -10.5535   -2.2785   57.7344 C.ar    1  ZINC001162683355   -0.1100
     21 C21       -11.0234   -2.6474   56.4878 C.ar    1  ZINC001162683355   -0.1000
     22 C22       -10.9098   -1.7759   55.4207 C.ar    1  ZINC001162683355   -0.1200
     23 C23       -10.3181   -0.5394   55.5983 C.ar    1  ZINC001162683355   -0.1100
     24 C24        -9.8435   -0.1726   56.8438 C.ar    1  ZINC001162683355   -0.1200
     25 C25        -9.9611   -1.0423   57.9117 C.ar    1  ZINC001162683355   -0.1000
     26 C26       -14.8898   -4.7381   57.8327 C.3     1  ZINC001162683355    0.0300
     27 H27       -13.7134   -6.7530   56.5531 H       1  ZINC001162683355    0.0300
     28 H28       -15.3602   -7.2353   57.0258 H       1  ZINC001162683355    0.0700
     29 H29       -14.9702   -6.9647   55.3103 H       1  ZINC001162683355    0.0700
     30 H30       -14.6707   -4.7501   54.4760 H       1  ZINC001162683355    0.0900
     31 H31       -13.3704   -4.4485   55.6547 H       1  ZINC001162683355    0.0500
     32 H32       -15.9720   -2.8720   55.3919 H       1  ZINC001162683355    0.0600
     33 H33       -14.3481   -2.3090   54.9272 H       1  ZINC001162683355    0.1000
     34 H34       -15.2619   -3.4999   60.0899 H       1  ZINC001162683355    0.0700
     35 H35       -15.5802   -1.8399   59.5319 H       1  ZINC001162683355    0.0800
     36 H36       -12.9958   -2.6755   58.6716 H       1  ZINC001162683355    0.4000
     37 H37       -11.7268   -0.1278   63.7023 H       1  ZINC001162683355    0.1300
     38 H38       -14.1008   -0.0984   63.1299 H       1  ZINC001162683355    0.1500
     39 H39        -9.0305   -1.1716   62.6973 H       1  ZINC001162683355    0.1500
     40 H40        -8.4734   -2.5716   60.5688 H       1  ZINC001162683355    0.1700
     41 H41       -11.6401   -3.7430   58.8431 H       1  ZINC001162683355    0.0900
     42 H42        -9.8731   -3.9568   58.8635 H       1  ZINC001162683355    0.0900
     43 H43       -11.4823   -3.6151   56.3482 H       1  ZINC001162683355    0.1200
     44 H44       -11.2809   -2.0623   54.4477 H       1  ZINC001162683355    0.1300
     45 H45       -10.2270    0.1404   54.7640 H       1  ZINC001162683355    0.1300
     46 H46        -9.3813    0.7936   56.9824 H       1  ZINC001162683355    0.1300
     47 H47        -9.5902   -0.7558   58.8848 H       1  ZINC001162683355    0.1200
     48 H48       -13.8226   -4.8014   58.0451 H       1  ZINC001162683355    0.0500
     49 H49       -15.4406   -5.3510   58.5462 H       1  ZINC001162683355    0.0900
@<TRIPOS>BOND
     1     1     2    1
     2     1    27    1
     3     1    28    1
     4     1    29    1
     5     2    26    1
     6     2     3    1
     7     3     4    1
     8     3    30    1
     9     3    31    1
    10     4     5    1
    11     4    32    1
    12     4    33    1
    13     5     6    1
    14     6     7    1
    15     6     8    1
    16     6    26    1
    17     8     9    1
    18     8    34    1
    19     8    35    1
    20     9    10    1
    21     9    36    1
    22    10    15   ar
    23    10    11   ar
    24    11    18    1
    25    11    12   ar
    26    12    13   ar
    27    12    16    1
    28    13    14   ar
    29    13    37    1
    30    14    15   ar
    31    14    38    1
    32    16    17    2
    33    16    39    1
    34    17    18    1
    35    17    40    1
    36    18    19    1
    37    19    20    1
    38    19    41    1
    39    19    42    1
    40    20    25   ar
    41    20    21   ar
    42    21    22   ar
    43    21    43    1
    44    22    23   ar
    45    22    44    1
    46    23    24   ar
    47    23    45    1
    48    24    25   ar
    49    24    46    1
    50    25    47    1
    51    26    48    1
    52    26    49    1
@<TRIPOS>SUBSTRUCTURE
     1 ZINC001162683355        1 TEMP              0 ****  ****    0 ROOT


##########                                Name:    ZINC000542980334
##########                DOCK_Rotatable_Bonds:                   6
##########                         Heavy_Atoms:                  27
##########                    Molecular_Weight:             404.795
##########                DOCK_Rotatable_Bonds:                   6
##########                       Formal_Charge:           0.0300001
##########                     HBond_Acceptors:                  10
##########                        HBond_Donors:                   1
##########                         Heavy_Atoms:                  27
##########                          Grid_Score:          -28.228121
##########                     Grid_vdw_energy:          -27.209177
##########                      Grid_es_energy:           -1.018943
##########           Internal_energy_repulsive:           10.098233

@<TRIPOS>MOLECULE
ZINC000542980334
 44 46 1 0 0
SMALL
USER_CHARGES


@<TRIPOS>ATOM
      1 O1        -10.4769    1.8516   57.5273 O.2     1  ZINC000542980334   -0.5800
      2 C2         -9.9235    0.7796   57.3759 C.2     1  ZINC000542980334    0.7100
      3 N3         -9.3748    0.4666   56.1854 N.am    1  ZINC000542980334   -0.7400
      4 C4         -9.4504    1.4156   55.0718 C.3     1  ZINC000542980334    0.1800
      5 C5         -8.5545    0.9498   53.9531 C.ar    1  ZINC000542980334   -0.1400
      6 C6         -7.2462    1.3960   53.8823 C.ar    1  ZINC000542980334    0.1300
      7 F7         -6.7715    2.2494   54.8160 F       1  ZINC000542980334   -0.1200
      8 C8         -6.4238    0.9669   52.8540 C.ar    1  ZINC000542980334   -0.1500
      9 C9         -6.9094    0.0937   51.8995 C.ar    1  ZINC000542980334   -0.0700
     10 C10        -8.2161   -0.3519   51.9702 C.ar    1  ZINC000542980334   -0.1200
     11 C11        -9.0376    0.0716   52.9997 C.ar    1  ZINC000542980334    0.0100
     12 Cl12      -10.6781   -0.4891   53.0879 Cl      1  ZINC000542980334   -0.0400
     13 N13        -9.8539   -0.0935   58.4004 N.am    1  ZINC000542980334   -0.6300
     14 C14        -9.1833   -1.3902   58.2346 C.3     1  ZINC000542980334    0.1100
     15 C15       -10.1484   -2.5020   58.6578 C.3     1  ZINC000542980334   -0.1300
     16 C16       -10.6440   -2.2280   60.0795 C.3     1  ZINC000542980334   -0.1300
     17 C17       -11.3976   -0.8964   60.1110 C.3     1  ZINC000542980334    0.1400
     18 H18       -12.2350   -0.9356   59.4143 H       1  ZINC000542980334    0.1100
     19 N19       -11.8994   -0.6505   61.4653 N.pl3   1  ZINC000542980334   -0.3400
     20 C20       -11.1473   -0.5066   62.5766 C.2     1  ZINC000542980334    0.0600
     21 C21       -11.9858   -0.2951   63.6174 C.2     1  ZINC000542980334   -0.2300
     22 C22       -13.2950   -0.3102   63.1254 C.2     1  ZINC000542980334   -0.0200
     23 C23       -14.5475   -0.1149   63.9402 C.3     1  ZINC000542980334    0.5600
     24 F24       -14.2450    0.6203   65.0914 F       1  ZINC000542980334   -0.1700
     25 F25       -15.4953    0.5785   63.1798 F       1  ZINC000542980334   -0.1700
     26 F26       -15.0652   -1.3621   64.3061 F       1  ZINC000542980334   -0.1600
     27 N27       -13.2440   -0.5171   61.8345 N.2     1  ZINC000542980334   -0.2300
     28 C28       -10.4418    0.2360   59.7059 C.3     1  ZINC000542980334    0.1300
     29 H29        -8.9299   -0.3870   56.0658 H       1  ZINC000542980334    0.4000
     30 H30       -10.4781    1.4744   54.7137 H       1  ZINC000542980334    0.0900
     31 H31        -9.1268    2.3998   55.4106 H       1  ZINC000542980334    0.0900
     32 H32        -5.4029    1.3149   52.7980 H       1  ZINC000542980334    0.1500
     33 H33        -6.2678   -0.2405   51.0976 H       1  ZINC000542980334    0.1500
     34 H34        -8.5948   -1.0340   51.2235 H       1  ZINC000542980334    0.1500
     35 H35        -8.9045   -1.5264   57.1896 H       1  ZINC000542980334    0.0800
     36 H36        -8.2912   -1.4229   58.8601 H       1  ZINC000542980334    0.0800
     37 H37       -10.9976   -2.5262   57.9747 H       1  ZINC000542980334    0.0800
     38 H38        -9.6320   -3.4616   58.6311 H       1  ZINC000542980334    0.0900
     39 H39       -11.3119   -3.0307   60.3923 H       1  ZINC000542980334    0.0800
     40 H40        -9.7923   -2.1794   60.7579 H       1  ZINC000542980334    0.0800
     41 H41       -10.0695   -0.5524   62.6264 H       1  ZINC000542980334    0.1900
     42 H42       -11.6955   -0.1422   64.6464 H       1  ZINC000542980334    0.1600
     43 H43        -9.6541    0.3342   60.4530 H       1  ZINC000542980334    0.0800
     44 H44       -10.9953    1.1720   59.6303 H       1  ZINC000542980334    0.1100
@<TRIPOS>BOND
     1     1     2    2
     2     2     3   am
     3     2    13   am
     4     3     4    1
     5     3    29    1
     6     4     5    1
     7     4    30    1
     8     4    31    1
     9     5    11   ar
    10     5     6   ar
    11     6     7    1
    12     6     8   ar
    13     8     9   ar
    14     8    32    1
    15     9    10   ar
    16     9    33    1
    17    10    11   ar
    18    10    34    1
    19    11    12    1
    20    13    28    1
    21    13    14    1
    22    14    15    1
    23    14    35    1
    24    14    36    1
    25    15    16    1
    26    15    37    1
    27    15    38    1
    28    16    17    1
    29    16    39    1
    30    16    40    1
    31    17    18    1
    32    17    19    1
    33    17    28    1
    34    19    27    1
    35    19    20    1
    36    20    21    2
    37    20    41    1
    38    21    22    1
    39    21    42    1
    40    22    23    1
    41    22    27    2
    42    23    24    1
    43    23    25    1
    44    23    26    1
    45    28    43    1
    46    28    44    1
@<TRIPOS>SUBSTRUCTURE
     1 ZINC000542980334        1 TEMP              0 ****  ****    0 ROOT


##########                                Name:    ZINC001456607258
##########                DOCK_Rotatable_Bonds:                   9
##########                         Heavy_Atoms:                  25
##########                    Molecular_Weight:             339.437
##########                DOCK_Rotatable_Bonds:                   9
##########                       Formal_Charge:          -0.0200009
##########                     HBond_Acceptors:                   5
##########                        HBond_Donors:                   2
##########                         Heavy_Atoms:                  25
##########                          Grid_Score:          -28.227476
##########                     Grid_vdw_energy:          -27.282473
##########                      Grid_es_energy:           -0.945003
##########           Internal_energy_repulsive:           11.531799

@<TRIPOS>MOLECULE
ZINC001456607258
 50 52 1 0 0
SMALL
USER_CHARGES


@<TRIPOS>ATOM
      1 C1        -10.2162   -0.8559   57.4386 C.3     1  ZINC001456607258   -0.1600
      2 C2         -9.7034   -1.4923   58.7321 C.3     1  ZINC001456607258   -0.1100
      3 C3        -10.8338   -2.2822   59.3949 C.3     1  ZINC001456607258   -0.1000
      4 H4        -11.6898   -1.6267   59.5548 H       1  ZINC001456607258    0.0900
      5 C5        -10.3526   -2.8301   60.7400 C.3     1  ZINC001456607258   -0.0700
      6 C6        -10.4026   -1.7358   61.7749 C.ar    1  ZINC001456607258   -0.0800
      7 C7        -11.6217   -1.2790   62.2395 C.ar    1  ZINC001456607258   -0.1200
      8 C8        -11.6676   -0.2752   63.1888 C.ar    1  ZINC001456607258   -0.1200
      9 C9        -10.4942    0.2716   63.6737 C.ar    1  ZINC001456607258   -0.1200
     10 C10        -9.2751   -0.1857   63.2098 C.ar    1  ZINC001456607258   -0.1200
     11 C11        -9.2291   -1.1926   62.2637 C.ar    1  ZINC001456607258   -0.1200
     12 C12       -11.2375   -3.4269   58.5016 C.2     1  ZINC001456607258    0.5200
     13 O13       -10.3915   -4.1627   58.0393 O.2     1  ZINC001456607258   -0.5300
     14 N14       -12.5386   -3.6329   58.2167 N.am    1  ZINC001456607258   -0.7300
     15 C15       -12.9310   -4.7457   57.3484 C.3     1  ZINC001456607258    0.1300
     16 C16       -13.4202   -4.1974   56.0065 C.3     1  ZINC001456607258   -0.1400
     17 C17       -14.6398   -4.9458   55.4387 C.3     1  ZINC001456607258    0.1100
     18 N18       -15.1634   -3.6137   55.0786 N.am    1  ZINC001456607258   -0.6500
     19 C19       -16.0320   -3.1586   54.1539 C.2     1  ZINC001456607258    0.6100
     20 O20       -16.2797   -1.9698   54.0853 O.2     1  ZINC001456607258   -0.5400
     21 C21       -16.6810   -4.1008   53.2267 C.2     1  ZINC001456607258   -0.2300
     22 C22       -16.9509   -5.4224   53.4530 C.2     1  ZINC001456607258    0.0400
     23 N23       -17.5498   -5.9275   52.3579 N.pl3   1  ZINC001456607258   -0.5500
     24 C24       -17.6834   -4.9615   51.4034 C.2     1  ZINC001456607258   -0.0200
     25 C25       -17.1744   -3.8100   51.8763 C.2     1  ZINC001456607258   -0.1400
     26 C26       -14.3538   -2.9803   56.1374 C.3     1  ZINC001456607258    0.1100
     27 H27        -9.4397   -0.2195   57.0141 H       1  ZINC001456607258    0.0600
     28 H28       -10.4740   -1.6391   56.7257 H       1  ZINC001456607258    0.0600
     29 H29       -11.1000   -0.2557   57.6545 H       1  ZINC001456607258    0.0600
     30 H30        -8.8762   -2.1643   58.5033 H       1  ZINC001456607258    0.0800
     31 H31        -9.3599   -0.7110   59.4101 H       1  ZINC001456607258    0.0700
     32 H32       -10.9979   -3.6523   61.0491 H       1  ZINC001456607258    0.0800
     33 H33        -9.3284   -3.1895   60.6404 H       1  ZINC001456607258    0.0900
     34 H34       -12.5385   -1.7062   61.8606 H       1  ZINC001456607258    0.1200
     35 H35       -12.6201    0.0821   63.5512 H       1  ZINC001456607258    0.1200
     36 H36       -10.5301    1.0564   64.4148 H       1  ZINC001456607258    0.1200
     37 H37        -8.3584    0.2417   63.5884 H       1  ZINC001456607258    0.1200
     38 H38        -8.2766   -1.5499   61.9012 H       1  ZINC001456607258    0.1200
     39 H39       -13.2151   -3.0444   58.5866 H       1  ZINC001456607258    0.4000
     40 H40       -12.0732   -5.3978   57.1834 H       1  ZINC001456607258    0.0700
     41 H41       -13.7320   -5.3121   57.8233 H       1  ZINC001456607258    0.0800
     42 H42       -12.6147   -4.0570   55.2857 H       1  ZINC001456607258    0.1100
     43 H43       -14.4084   -5.5741   54.5786 H       1  ZINC001456607258    0.0800
     44 H44       -15.2313   -5.4603   56.1960 H       1  ZINC001456607258    0.0900
     45 H45       -16.7223   -5.9682   54.3565 H       1  ZINC001456607258    0.1700
     46 H46       -17.8438   -6.8468   52.2611 H       1  ZINC001456607258    0.4200
     47 H47       -18.1297   -5.0980   50.4295 H       1  ZINC001456607258    0.1700
     48 H48       -17.1306   -2.8617   51.3612 H       1  ZINC001456607258    0.1500
     49 H49       -14.8612   -2.9174   57.1001 H       1  ZINC001456607258    0.0900
     50 H50       -13.8939   -2.0394   55.8353 H       1  ZINC001456607258    0.0900
@<TRIPOS>BOND
     1     1     2    1
     2     1    27    1
     3     1    28    1
     4     1    29    1
     5     2     3    1
     6     2    30    1
     7     2    31    1
     8     3     4    1
     9     3     5    1
    10     3    12    1
    11     5     6    1
    12     5    32    1
    13     5    33    1
    14     6    11   ar
    15     6     7   ar
    16     7     8   ar
    17     7    34    1
    18     8     9   ar
    19     8    35    1
    20     9    10   ar
    21     9    36    1
    22    10    11   ar
    23    10    37    1
    24    11    38    1
    25    12    13    2
    26    12    14   am
    27    14    15    1
    28    14    39    1
    29    15    16    1
    30    15    40    1
    31    15    41    1
    32    16    26    1
    33    16    17    1
    34    16    42    1
    35    17    18    1
    36    17    43    1
    37    17    44    1
    38    18    19   am
    39    18    26    1
    40    19    20    2
    41    19    21    1
    42    21    25    1
    43    21    22    2
    44    22    23    1
    45    22    45    1
    46    23    24    1
    47    23    46    1
    48    24    25    2
    49    24    47    1
    50    25    48    1
    51    26    49    1
    52    26    50    1
@<TRIPOS>SUBSTRUCTURE
     1 ZINC001456607258        1 TEMP              0 ****  ****    0 ROOT


##########                                Name:    ZINC000558213406
##########                DOCK_Rotatable_Bonds:                   8
##########                         Heavy_Atoms:                  30
##########                    Molecular_Weight:               408.5
##########                DOCK_Rotatable_Bonds:                   8
##########                       Formal_Charge:          -0.0299987
##########                     HBond_Acceptors:                   7
##########                        HBond_Donors:                   2
##########                         Heavy_Atoms:                  30
##########                          Grid_Score:          -28.221069
##########                     Grid_vdw_energy:          -27.315302
##########                      Grid_es_energy:           -0.905767
##########           Internal_energy_repulsive:            8.415617

@<TRIPOS>MOLECULE
ZINC000558213406
 58 61 1 0 0
SMALL
USER_CHARGES


@<TRIPOS>ATOM
      1 O1        -12.9431   -0.3375   55.6492 O.2     1  ZINC000558213406   -0.5700
      2 C2        -12.1601   -0.5778   54.7505 C.2     1  ZINC000558213406    0.7100
      3 N3        -10.9685   -1.1430   55.0282 N.am    1  ZINC000558213406   -0.6800
      4 C4        -10.6296   -1.4484   56.3533 C.ar    1  ZINC000558213406    0.1700
      5 C5        -10.0609   -0.4769   57.1661 C.ar    1  ZINC000558213406   -0.1300
      6 C6         -9.7277   -0.7781   58.4718 C.ar    1  ZINC000558213406   -0.1100
      7 C7         -9.9605   -2.0514   58.9714 C.ar    1  ZINC000558213406    0.0600
      8 O8         -9.6318   -2.3476   60.2570 O.3     1  ZINC000558213406   -0.2500
      9 C9        -10.2440   -1.6493   61.2491 C.ar    1  ZINC000558213406    0.0700
     10 C10        -9.5054   -1.1381   62.3117 C.ar    1  ZINC000558213406   -0.1500
     11 C11       -10.1742   -0.4330   63.2994 C.ar    1  ZINC000558213406   -0.1300
     12 C12       -11.5419   -0.2617   63.1978 C.ar    1  ZINC000558213406    0.0600
     13 N13       -12.2129   -0.7597   62.1774 N.ar    1  ZINC000558213406   -0.4500
     14 C14       -11.6140   -1.4310   61.2141 C.ar    1  ZINC000558213406    0.0800
     15 C15       -10.5292   -3.0223   58.1597 C.ar    1  ZINC000558213406   -0.1000
     16 C16       -10.8676   -2.7207   56.8554 C.ar    1  ZINC000558213406   -0.1100
     17 N17       -12.4860   -0.2842   53.4762 N.am    1  ZINC000558213406   -0.7300
     18 C18       -13.7813    0.3302   53.1743 C.3     1  ZINC000558213406    0.1500
     19 H19       -14.5852   -0.1948   53.6905 H       1  ZINC000558213406    0.1100
     20 C20       -13.7766    1.8349   53.5526 C.3     1  ZINC000558213406   -0.1400
     21 C21       -14.8493    2.4012   52.5890 C.3     1  ZINC000558213406    0.1000
     22 N22       -14.6692    1.6439   51.3369 N.am    1  ZINC000558213406   -0.6200
     23 C23       -15.0291    2.0622   50.1073 C.2     1  ZINC000558213406    0.5400
     24 O24       -15.5501    3.1480   49.9645 O.2     1  ZINC000558213406   -0.5300
     25 C25       -14.7842    1.1807   48.9098 C.3     1  ZINC000558213406   -0.1000
     26 C26       -15.9239    1.3576   47.9046 C.3     1  ZINC000558213406   -0.1100
     27 C27       -15.6752    0.4626   46.6889 C.3     1  ZINC000558213406   -0.1200
     28 C28       -14.3500    0.8525   46.0311 C.3     1  ZINC000558213406   -0.1200
     29 C29       -13.2103    0.6755   47.0364 C.3     1  ZINC000558213406   -0.1200
     30 C30       -13.4590    1.5705   48.2521 C.3     1  ZINC000558213406   -0.1100
     31 C31       -14.0332    0.3529   51.6520 C.3     1  ZINC000558213406    0.1000
     32 H32       -10.3455   -1.3385   54.3109 H       1  ZINC000558213406    0.4100
     33 H33        -9.8790    0.5140   56.7771 H       1  ZINC000558213406    0.1300
     34 H34        -9.2853   -0.0225   59.1042 H       1  ZINC000558213406    0.1400
     35 H35        -8.4372   -1.2876   62.3654 H       1  ZINC000558213406    0.1400
     36 H36        -9.6330   -0.0223   64.1390 H       1  ZINC000558213406    0.1400
     37 H37       -12.0685    0.2870   63.9647 H       1  ZINC000558213406    0.1600
     38 H38       -12.1970   -1.8236   60.3941 H       1  ZINC000558213406    0.1700
     39 H39       -10.7102   -4.0133   58.5492 H       1  ZINC000558213406    0.1400
     40 H40       -11.3106   -3.4765   56.2238 H       1  ZINC000558213406    0.1500
     41 H41       -11.8630   -0.4797   52.7589 H       1  ZINC000558213406    0.4000
     42 H42       -14.0713    1.9773   54.5923 H       1  ZINC000558213406    0.0900
     43 H43       -12.8021    2.2833   53.3594 H       1  ZINC000558213406    0.0800
     44 H44       -15.8478    2.2345   52.9928 H       1  ZINC000558213406    0.0700
     45 H45       -14.6812    3.4642   52.4169 H       1  ZINC000558213406    0.0800
     46 H46       -14.7391    0.1393   49.2285 H       1  ZINC000558213406    0.0900
     47 H47       -16.8682    1.0799   48.3732 H       1  ZINC000558213406    0.0600
     48 H48       -15.9690    2.3990   47.5861 H       1  ZINC000558213406    0.0700
     49 H49       -15.6303   -0.5788   47.0076 H       1  ZINC000558213406    0.0600
     50 H50       -16.4872    0.5887   45.9728 H       1  ZINC000558213406    0.0700
     51 H51       -14.1729    0.2148   45.1650 H       1  ZINC000558213406    0.0600
     52 H52       -14.3951    1.8939   45.7125 H       1  ZINC000558213406    0.0600
     53 H53       -13.1652   -0.3659   47.3550 H       1  ZINC000558213406    0.0600
     54 H54       -12.2662    0.9532   46.5677 H       1  ZINC000558213406    0.0700
     55 H55       -13.5039    2.6119   47.9335 H       1  ZINC000558213406    0.0800
     56 H56       -12.6470    1.4444   48.9683 H       1  ZINC000558213406    0.0600
     57 H57       -13.0856    0.2670   51.1204 H       1  ZINC000558213406    0.0800
     58 H58       -14.6953   -0.4654   51.3686 H       1  ZINC000558213406    0.0800
@<TRIPOS>BOND
     1     1     2    2
     2     2     3   am
     3     2    17   am
     4     3     4    1
     5     3    32    1
     6     4    16   ar
     7     4     5   ar
     8     5     6   ar
     9     5    33    1
    10     6     7   ar
    11     6    34    1
    12     7     8    1
    13     7    15   ar
    14     8     9    1
    15     9    14   ar
    16     9    10   ar
    17    10    11   ar
    18    10    35    1
    19    11    12   ar
    20    11    36    1
    21    12    13   ar
    22    12    37    1
    23    13    14   ar
    24    14    38    1
    25    15    16   ar
    26    15    39    1
    27    16    40    1
    28    17    18    1
    29    17    41    1
    30    18    19    1
    31    18    31    1
    32    18    20    1
    33    20    21    1
    34    20    42    1
    35    20    43    1
    36    21    22    1
    37    21    44    1
    38    21    45    1
    39    22    23   am
    40    22    31    1
    41    23    24    2
    42    23    25    1
    43    25    30    1
    44    25    26    1
    45    25    46    1
    46    26    27    1
    47    26    47    1
    48    26    48    1
    49    27    28    1
    50    27    49    1
    51    27    50    1
    52    28    29    1
    53    28    51    1
    54    28    52    1
    55    29    30    1
    56    29    53    1
    57    29    54    1
    58    30    55    1
    59    30    56    1
    60    31    57    1
    61    31    58    1
@<TRIPOS>SUBSTRUCTURE
     1 ZINC000558213406        1 TEMP              0 ****  ****    0 ROOT


##########                                Name:    ZINC000342525234
##########                DOCK_Rotatable_Bonds:                   6
##########                         Heavy_Atoms:                  25
##########                    Molecular_Weight:             333.349
##########                DOCK_Rotatable_Bonds:                   6
##########                       Formal_Charge:           0.0500003
##########                     HBond_Acceptors:                   7
##########                        HBond_Donors:                   2
##########                         Heavy_Atoms:                  25
##########                          Grid_Score:          -28.217598
##########                     Grid_vdw_energy:          -28.402168
##########                      Grid_es_energy:            0.184570
##########           Internal_energy_repulsive:            4.984381

@<TRIPOS>MOLECULE
ZINC000342525234
 40 43 1 0 0
SMALL
USER_CHARGES


@<TRIPOS>ATOM
      1 O1         -2.1515    5.3668   52.0934 O.2     1  <0>        -0.5100
      2 C2         -2.6413    4.3176   51.7256 C.2     1  <0>         0.6000
      3 N3         -1.9763    3.5318   50.8557 N.am    1  <0>        -0.7100
      4 C4         -0.6656    3.9457   50.3488 C.3     1  <0>         0.1200
      5 C5          0.1964    2.7077   50.0928 C.3     1  <0>        -0.0900
      6 C6         -0.2531    2.0371   48.8203 C.ar    1  <0>        -0.0400
      7 C7         -0.1351    2.7051   47.6457 C.ar    1  <0>        -0.1000
      8 C8         -0.5529    2.0870   46.4474 C.ar    1  <0>         0.1100
      9 N9         -0.5764    2.4459   45.1767 N.2     1  <0>        -0.3100
     10 N10        -1.1126    1.3990   44.4183 N.pl3   1  <0>        -0.4200
     11 C11        -1.4299    0.3714   45.2174 C.2     1  <0>         0.0900
     12 C12        -1.1075    0.7260   46.5141 C.ar    1  <0>        -0.2100
     13 C13        -1.2005    0.0914   47.7713 C.ar    1  <0>        -0.0400
     14 C14        -0.7744    0.7428   48.8823 C.ar    1  <0>        -0.1500
     15 C15        -3.9685    3.8984   52.2388 C.2     1  <0>        -0.0200
     16 N16        -4.7794    4.6033   52.9892 N.2     1  <0>        -0.3200
     17 O17        -5.7913    3.9954   53.2494 O.3     1  <0>         0.1400
     18 C18        -5.7938    2.7709   52.6938 C.2     1  <0>         0.0100
     19 C19        -6.8616    1.7529   52.7972 C.ar    1  <0>         0.0200
     20 C20        -8.0085    1.9889   53.5641 C.ar    1  <0>        -0.1400
     21 C21        -8.9800    1.0117   53.6324 C.ar    1  <0>         0.1100
     22 N22        -8.8382   -0.1308   52.9883 N.ar    1  <0>        -0.4800
     23 C23        -7.7736   -0.3937   52.2548 C.ar    1  <0>         0.1100
     24 C24        -6.7562    0.5292   52.1264 C.ar    1  <0>        -0.1500
     25 C25        -4.6163    2.6560   52.0096 C.2     1  <0>        -0.1500
     26 H26        -2.3657    2.6922   50.5650 H       1  <0>         0.4100
     27 H27        -0.7938    4.4980   49.4180 H       1  <0>         0.0800
     28 H28        -0.1762    4.5832   51.0851 H       1  <0>         0.0800
     29 H29         1.2405    3.0055   49.9974 H       1  <0>         0.0900
     30 H30         0.0913    2.0132   50.9264 H       1  <0>         0.0800
     31 H31         0.2755    3.7037   47.6274 H       1  <0>         0.1300
     32 H32        -1.2365    1.4150   43.4564 H       1  <0>         0.4500
     33 H33        -1.8616   -0.5677   44.9040 H       1  <0>         0.1900
     34 H34        -1.6038   -0.9076   47.8477 H       1  <0>         0.1300
     35 H35        -0.8482    0.2510   49.8410 H       1  <0>         0.1200
     36 H36        -8.1308    2.9217   54.0945 H       1  <0>         0.1400
     37 H37        -9.8686    1.1843   54.2215 H       1  <0>         0.1700
     38 H38        -7.6994   -1.3427   51.7447 H       1  <0>         0.1700
     39 H39        -5.8875    0.3072   51.5242 H       1  <0>         0.1500
     40 H40        -4.2591    1.8144   51.4346 H       1  <0>         0.1900
@<TRIPOS>BOND
     1     1     2    2
     2     2     3   am
     3     2    15    1
     4     3     4    1
     5     3    26    1
     6     4     5    1
     7     4    27    1
     8     4    28    1
     9     5     6    1
    10     5    29    1
    11     5    30    1
    12     6    14   ar
    13     6     7   ar
    14     7     8   ar
    15     7    31    1
    16     8    12   ar
    17     8     9    2
    18     9    10    1
    19    10    11    1
    20    10    32    1
    21    11    12    2
    22    11    33    1
    23    12    13   ar
    24    13    14   ar
    25    13    34    1
    26    14    35    1
    27    15    25    1
    28    15    16    2
    29    16    17    1
    30    17    18    1
    31    18    19    1
    32    18    25    2
    33    19    24   ar
    34    19    20   ar
    35    20    21   ar
    36    20    36    1
    37    21    22   ar
    38    21    37    1
    39    22    23   ar
    40    23    24   ar
    41    23    38    1
    42    24    39    1
    43    25    40    1
@<TRIPOS>SUBSTRUCTURE
     1 <0>         1 TEMP              0 ****  ****    0 ROOT


##########                                Name:    ZINC000442864105
##########                DOCK_Rotatable_Bonds:                   7
##########                         Heavy_Atoms:                  30
##########                    Molecular_Weight:              414.39
##########                DOCK_Rotatable_Bonds:                   7
##########                       Formal_Charge:           0.0200001
##########                     HBond_Acceptors:                  10
##########                        HBond_Donors:                   2
##########                         Heavy_Atoms:                  30
##########                          Grid_Score:          -28.216757
##########                     Grid_vdw_energy:          -27.310116
##########                      Grid_es_energy:           -0.906641
##########           Internal_energy_repulsive:            6.129459

@<TRIPOS>MOLECULE
ZINC000442864105
 47 50 1 0 0
SMALL
USER_CHARGES


@<TRIPOS>ATOM
      1 C1        -14.8627   -7.0175   56.2351 C.3     1  ZINC000442864105    0.0800
      2 N2        -15.4023   -5.8954   55.4629 N.pl3   1  ZINC000442864105   -0.4900
      3 C3        -16.3082   -6.0064   54.4412 C.2     1  ZINC000442864105    0.0300
      4 C4        -16.5927   -4.7913   53.9483 C.2     1  ZINC000442864105   -0.1900
      5 C5        -15.8055   -3.8220   54.7159 C.ar    1  ZINC000442864105   -0.1600
      6 C6        -15.6739   -2.4325   54.6756 C.ar    1  ZINC000442864105   -0.0200
      7 C7        -14.8345   -1.8032   55.5498 C.ar    1  ZINC000442864105   -0.2100
      8 C8        -14.1067   -2.5386   56.4841 C.ar    1  ZINC000442864105    0.2400
      9 N9        -13.2517   -1.8793   57.3721 N.pl3   1  ZINC000442864105   -0.7400
     10 C10       -13.7071   -0.6735   58.0684 C.3     1  ZINC000442864105    0.1100
     11 C11       -12.7356   -0.3315   59.1685 C.2     1  ZINC000442864105    0.5100
     12 O12       -12.0357    0.6547   59.0747 O.2     1  ZINC000442864105   -0.5100
     13 N13       -12.6442   -1.1215   60.2567 N.am    1  ZINC000442864105   -0.6600
     14 C14       -11.7418   -0.8039   61.2784 C.ar    1  ZINC000442864105    0.1600
     15 C15       -12.1072    0.0865   62.2773 C.ar    1  ZINC000442864105   -0.0700
     16 C16       -11.2146    0.3986   63.2852 C.ar    1  ZINC000442864105   -0.1600
     17 C17       -11.6138    1.3661   64.3694 C.3     1  ZINC000442864105    0.5100
     18 F18       -11.4764    0.7501   65.6179 F       1  ZINC000442864105   -0.1700
     19 F19       -10.7898    2.4953   64.3132 F       1  ZINC000442864105   -0.1700
     20 F20       -12.9459    1.7511   64.1835 F       1  ZINC000442864105   -0.1700
     21 C21        -9.9562   -0.1747   63.3019 C.ar    1  ZINC000442864105   -0.0600
     22 C22        -9.5835   -1.0625   62.3103 C.ar    1  ZINC000442864105   -0.1100
     23 C23       -10.4746   -1.3860   61.2984 C.ar    1  ZINC000442864105    0.1500
     24 N24       -10.0985   -2.2866   60.2912 N.pl3   1  ZINC000442864105   -0.3300
     25 C25        -9.1695   -2.0883   59.3362 C.2     1  ZINC000442864105    0.2800
     26 N26        -9.1156   -3.1645   58.5935 N.2     1  ZINC000442864105   -0.5300
     27 C27        -9.9891   -4.0663   59.0399 C.2     1  ZINC000442864105    0.2300
     28 N28       -10.6109   -3.5773   60.0813 N.2     1  ZINC000442864105   -0.3400
     29 C29       -14.2246   -3.9167   56.5396 C.ar    1  ZINC000442864105   -0.2100
     30 C30       -15.0792   -4.5713   55.6597 C.ar    1  ZINC000442864105    0.1500
     31 H31       -15.5026   -7.2065   57.0970 H       1  ZINC000442864105    0.0700
     32 H32       -14.8273   -7.9073   55.6068 H       1  ZINC000442864105    0.0800
     33 H33       -13.8566   -6.7732   56.5762 H       1  ZINC000442864105    0.0800
     34 H34       -16.7308   -6.9344   54.0852 H       1  ZINC000442864105    0.1700
     35 H35       -17.2725   -4.5696   53.1389 H       1  ZINC000442864105    0.1400
     36 H36       -16.2344   -1.8566   53.9540 H       1  ZINC000442864105    0.1200
     37 H37       -14.7335   -0.7285   55.5169 H       1  ZINC000442864105    0.1200
     38 H38       -12.3569   -2.2202   57.5272 H       1  ZINC000442864105    0.4100
     39 H39       -13.7626    0.1548   57.3622 H       1  ZINC000442864105    0.1000
     40 H40       -14.6932   -0.8521   58.4972 H       1  ZINC000442864105    0.1000
     41 H41       -13.2039   -1.9102   60.3317 H       1  ZINC000442864105    0.4300
     42 H42       -13.0892    0.5360   62.2673 H       1  ZINC000442864105    0.1700
     43 H43        -9.2625    0.0723   64.0919 H       1  ZINC000442864105    0.1500
     44 H44        -8.5998   -1.5081   62.3263 H       1  ZINC000442864105    0.1500
     45 H45        -8.5739   -1.1969   59.2057 H       1  ZINC000442864105    0.2300
     46 H46       -10.1539   -5.0447   58.6133 H       1  ZINC000442864105    0.2300
     47 H47       -13.6581   -4.4806   57.2658 H       1  ZINC000442864105    0.1200
@<TRIPOS>BOND
     1     1     2    1
     2     1    31    1
     3     1    32    1
     4     1    33    1
     5     2    30    1
     6     2     3    1
     7     3     4    2
     8     3    34    1
     9     4     5    1
    10     4    35    1
    11     5    30   ar
    12     5     6   ar
    13     6     7   ar
    14     6    36    1
    15     7     8   ar
    16     7    37    1
    17     8     9    1
    18     8    29   ar
    19     9    10    1
    20     9    38    1
    21    10    11    1
    22    10    39    1
    23    10    40    1
    24    11    12    2
    25    11    13   am
    26    13    14    1
    27    13    41    1
    28    14    23   ar
    29    14    15   ar
    30    15    16   ar
    31    15    42    1
    32    16    17    1
    33    16    21   ar
    34    17    18    1
    35    17    19    1
    36    17    20    1
    37    21    22   ar
    38    21    43    1
    39    22    23   ar
    40    22    44    1
    41    23    24    1
    42    24    28    1
    43    24    25    1
    44    25    26    2
    45    25    45    1
    46    26    27    1
    47    27    28    2
    48    27    46    1
    49    29    30   ar
    50    29    47    1
@<TRIPOS>SUBSTRUCTURE
     1 ZINC000442864105        1 TEMP              0 ****  ****    0 ROOT


##########                                Name:    ZINC001082278299
##########                DOCK_Rotatable_Bonds:                   9
##########                         Heavy_Atoms:                  25
##########                    Molecular_Weight:              346.47
##########                DOCK_Rotatable_Bonds:                   9
##########                       Formal_Charge:           0.0200001
##########                     HBond_Acceptors:                   5
##########                        HBond_Donors:                   1
##########                         Heavy_Atoms:                  25
##########                          Grid_Score:          -28.202517
##########                     Grid_vdw_energy:          -28.364431
##########                      Grid_es_energy:            0.161916
##########           Internal_energy_repulsive:           84.752052

@<TRIPOS>MOLECULE
ZINC001082278299
 55 57 1 0 0
SMALL
USER_CHARGES


@<TRIPOS>ATOM
      1 C1        -14.7177   -6.8845   55.6171 C.3     1  ZINC001082278299   -0.1300
      2 C2        -15.3489   -6.1339   54.4729 C.2     1  ZINC001082278299    0.0000
      3 C3        -15.4013   -4.8052   54.4976 C.2     1  ZINC001082278299   -0.2300
      4 C4        -14.8433   -4.0681   55.6417 C.2     1  ZINC001082278299    0.5400
      5 O5        -13.8841   -3.3372   55.4848 O.2     1  ZINC001082278299   -0.5300
      6 N6        -15.3951   -4.2028   56.8640 N.am    1  ZINC001082278299   -0.7400
      7 C7        -14.8404   -3.4673   58.0031 C.3     1  ZINC001082278299    0.1300
      8 C8        -15.9157   -3.3084   59.0799 C.3     1  ZINC001082278299    0.1400
      9 H9        -16.1775   -4.2871   59.4820 H       1  ZINC001082278299    0.0800
     10 C10       -17.1596   -2.6539   58.4709 C.3     1  ZINC001082278299   -0.1300
     11 C11       -18.1766   -2.3708   59.5789 C.3     1  ZINC001082278299   -0.1200
     12 C12       -17.5694   -1.4014   60.5954 C.3     1  ZINC001082278299   -0.1400
     13 C13       -16.3301   -2.0417   61.2286 C.3     1  ZINC001082278299    0.1100
     14 N14       -15.4081   -2.4517   60.1603 N.am    1  ZINC001082278299   -0.6100
     15 C15       -14.1230   -2.0455   60.1688 C.2     1  ZINC001082278299    0.5100
     16 O16       -13.3719   -2.3908   59.2815 O.2     1  ZINC001082278299   -0.5100
     17 C17       -13.6194   -1.1622   61.2811 C.3     1  ZINC001082278299   -0.1100
     18 C18       -12.1521   -0.8854   61.0775 C.2     1  ZINC001082278299   -0.0900
     19 C19       -11.8032    0.1061   60.3128 C.2     1  ZINC001082278299   -0.1800
     20 C20       -10.3688    0.4588   60.0387 C.3     1  ZINC001082278299    0.0900
     21 O21        -9.5146   -0.1829   60.9876 O.3     1  ZINC001082278299   -0.3800
     22 C22        -9.7734   -1.5866   61.1153 C.3     1  ZINC001082278299    0.0600
     23 C23       -11.1474   -1.7631   61.7717 C.3     1  ZINC001082278299   -0.1100
     24 C24       -15.9206   -6.8888   53.3006 C.3     1  ZINC001082278299   -0.1200
     25 C25       -17.2085   -6.3507   52.6739 C.3     1  ZINC001082278299   -0.1900
     26 C26       -15.8781   -6.2061   51.9320 C.3     1  ZINC001082278299   -0.1500
     27 H27       -15.4767   -7.1102   56.3661 H       1  ZINC001082278299    0.0800
     28 H28       -14.2847   -7.8138   55.2472 H       1  ZINC001082278299    0.0800
     29 H29       -13.9353   -6.2723   56.0656 H       1  ZINC001082278299    0.0700
     30 H30       -15.8536   -4.2674   53.6774 H       1  ZINC001082278299    0.1300
     31 H31       -16.1594   -4.7867   56.9894 H       1  ZINC001082278299    0.3900
     32 H32       -13.9938   -4.0177   58.4136 H       1  ZINC001082278299    0.0900
     33 H33       -14.5084   -2.4830   57.6732 H       1  ZINC001082278299    0.0800
     34 H34       -16.8786   -1.7183   57.9873 H       1  ZINC001082278299    0.0700
     35 H35       -17.6011   -3.3259   57.7349 H       1  ZINC001082278299    0.0800
     36 H36       -19.0728   -1.9276   59.1447 H       1  ZINC001082278299    0.0700
     37 H37       -18.4385   -3.3036   60.0783 H       1  ZINC001082278299    0.0700
     38 H38       -17.2846   -0.4775   60.0919 H       1  ZINC001082278299    0.0700
     39 H39       -18.3024   -1.1819   61.3718 H       1  ZINC001082278299    0.0800
     40 H40       -15.8375   -1.3191   61.8793 H       1  ZINC001082278299    0.0900
     41 H41       -16.6263   -2.9159   61.8083 H       1  ZINC001082278299    0.0700
     42 H42       -14.1706   -0.2219   61.2762 H       1  ZINC001082278299    0.1000
     43 H43       -13.7652   -1.6638   62.2378 H       1  ZINC001082278299    0.1000
     44 H44       -12.5783    0.7021   59.8541 H       1  ZINC001082278299    0.1100
     45 H45       -10.1022    0.1322   59.0335 H       1  ZINC001082278299    0.0600
     46 H46       -10.2422    1.5390   60.1110 H       1  ZINC001082278299    0.1000
     47 H47        -9.7707   -2.0516   60.1295 H       1  ZINC001082278299    0.0600
     48 H48        -9.0075   -2.0457   61.7404 H       1  ZINC001082278299    0.1000
     49 H49       -11.0842   -1.4901   62.8251 H       1  ZINC001082278299    0.0800
     50 H50       -11.4601   -2.8037   61.6849 H       1  ZINC001082278299    0.0800
     51 H51       -15.7874   -7.9704   53.3278 H       1  ZINC001082278299    0.1300
     52 H52       -17.9229   -7.0781   52.2888 H       1  ZINC001082278299    0.1000
     53 H53       -17.6422   -5.4506   53.1096 H       1  ZINC001082278299    0.1000
     54 H54       -15.4367   -5.2108   51.8797 H       1  ZINC001082278299    0.0900
     55 H55       -15.7175   -6.8384   51.0589 H       1  ZINC001082278299    0.1000
@<TRIPOS>BOND
     1     1     2    1
     2     1    27    1
     3     1    28    1
     4     1    29    1
     5     2     3    2
     6     2    24    1
     7     3     4    1
     8     3    30    1
     9     4     5    2
    10     4     6   am
    11     6     7    1
    12     6    31    1
    13     7     8    1
    14     7    32    1
    15     7    33    1
    16     8     9    1
    17     8    14    1
    18     8    10    1
    19    10    11    1
    20    10    34    1
    21    10    35    1
    22    11    12    1
    23    11    36    1
    24    11    37    1
    25    12    13    1
    26    12    38    1
    27    12    39    1
    28    13    14    1
    29    13    40    1
    30    13    41    1
    31    14    15   am
    32    15    16    2
    33    15    17    1
    34    17    18    1
    35    17    42    1
    36    17    43    1
    37    18    23    1
    38    18    19    2
    39    19    20    1
    40    19    44    1
    41    20    21    1
    42    20    45    1
    43    20    46    1
    44    21    22    1
    45    22    23    1
    46    22    47    1
    47    22    48    1
    48    23    49    1
    49    23    50    1
    50    24    26    1
    51    24    25    1
    52    24    51    1
    53    25    26    1
    54    25    52    1
    55    25    53    1
    56    26    54    1
    57    26    55    1
@<TRIPOS>SUBSTRUCTURE
     1 ZINC001082278299        1 TEMP              0 ****  ****    0 ROOT


##########                                Name:    ZINC000469435497
##########                DOCK_Rotatable_Bonds:                   6
##########                         Heavy_Atoms:                  27
##########                    Molecular_Weight:             364.444
##########                DOCK_Rotatable_Bonds:                   6
##########                       Formal_Charge:           0.0300001
##########                     HBond_Acceptors:                   5
##########                        HBond_Donors:                   2
##########                         Heavy_Atoms:                  27
##########                          Grid_Score:          -28.191711
##########                     Grid_vdw_energy:          -26.515190
##########                      Grid_es_energy:           -1.676522
##########           Internal_energy_repulsive:            5.286775

@<TRIPOS>MOLECULE
ZINC000469435497
 51 54 1 0 0
SMALL
USER_CHARGES


@<TRIPOS>ATOM
      1 C1        -12.8398    3.2328   64.8606 C.3     1  ZINC000469435497   -0.1600
      2 C2        -13.1412    1.7670   65.1793 C.3     1  ZINC000469435497    0.1000
      3 C3        -14.3439    1.6549   66.1183 C.3     1  ZINC000469435497   -0.1400
      4 C4        -13.3782    0.9613   63.8802 C.3     1  ZINC000469435497   -0.1000
      5 C5        -11.9915    0.4208   63.5889 C.ar    1  ZINC000469435497   -0.1500
      6 C6        -11.4369   -0.1368   62.4592 C.ar    1  ZINC000469435497   -0.0700
      7 C7        -10.1095   -0.5483   62.4692 C.ar    1  ZINC000469435497    0.1100
      8 N8         -9.5392   -1.1162   61.3223 N.am    1  ZINC000469435497   -0.6600
      9 C9         -9.9089   -2.3503   60.9264 C.2     1  ZINC000469435497    0.5100
     10 O10       -10.7352   -2.9693   61.5630 O.2     1  ZINC000469435497   -0.5200
     11 C11        -9.2955   -2.9613   59.6929 C.3     1  ZINC000469435497    0.1000
     12 N12        -9.0999   -1.9222   58.6789 N.am    1  ZINC000469435497   -0.7200
     13 C13       -10.0449   -1.7084   57.7421 C.2     1  ZINC000469435497    0.5700
     14 O14       -11.0589   -2.3786   57.7377 O.2     1  ZINC000469435497   -0.5300
     15 C15        -9.8482   -0.6585   56.7198 C.ar    1  ZINC000469435497   -0.1400
     16 C16       -10.7956   -0.4744   55.7119 C.ar    1  ZINC000469435497   -0.0800
     17 C17       -10.6039    0.5069   54.7629 C.ar    1  ZINC000469435497   -0.1100
     18 C18        -9.4760    1.3118   54.8037 C.ar    1  ZINC000469435497   -0.0700
     19 C19        -9.0458    2.4394   53.8893 C.3     1  ZINC000469435497   -0.0900
     20 C20        -7.9716    3.2146   54.6812 C.3     1  ZINC000469435497   -0.1200
     21 C21        -7.4066    2.1303   55.6230 C.3     1  ZINC000469435497   -0.0800
     22 C22        -8.5327    1.1340   55.8010 C.ar    1  ZINC000469435497   -0.1100
     23 C23        -8.7176    0.1572   56.7608 C.ar    1  ZINC000469435497   -0.0400
     24 C24        -9.3519   -0.3931   63.6221 C.ar    1  ZINC000469435497   -0.1000
     25 C25        -9.9124    0.1624   64.7530 C.ar    1  ZINC000469435497   -0.1200
     26 C26       -11.2429    0.5735   64.7492 C.ar    1  ZINC000469435497    0.1000
     27 O27       -11.9890    1.1223   65.7482 O.3     1  ZINC000469435497   -0.3000
     28 H28       -12.0009    3.2888   64.1668 H       1  ZINC000469435497    0.0600
     29 H29       -13.7173    3.6939   64.4073 H       1  ZINC000469435497    0.0800
     30 H30       -12.5866    3.7600   65.7804 H       1  ZINC000469435497    0.0700
     31 H31       -15.2214    2.0883   65.6382 H       1  ZINC000469435497    0.0800
     32 H32       -14.5336    0.6052   66.3422 H       1  ZINC000469435497    0.0700
     33 H33       -14.1338    2.1915   67.0435 H       1  ZINC000469435497    0.0700
     34 H34       -14.0853    0.1491   64.0491 H       1  ZINC000469435497    0.0900
     35 H35       -13.7197    1.6120   63.0751 H       1  ZINC000469435497    0.0900
     36 H36       -12.0326   -0.2548   61.5661 H       1  ZINC000469435497    0.1400
     37 H37        -8.8784   -0.6212   60.8132 H       1  ZINC000469435497    0.4200
     38 H38        -8.3336   -3.4060   59.9477 H       1  ZINC000469435497    0.1100
     39 H39        -9.9594   -3.7315   59.3004 H       1  ZINC000469435497    0.1100
     40 H40        -8.2901   -1.3881   58.6817 H       1  ZINC000469435497    0.4100
     41 H41       -11.6760   -1.0989   55.6752 H       1  ZINC000469435497    0.1300
     42 H42       -11.3369    0.6492   53.9825 H       1  ZINC000469435497    0.1300
     43 H43        -8.6214    2.0388   52.9687 H       1  ZINC000469435497    0.0900
     44 H44        -9.8924    3.0885   53.6652 H       1  ZINC000469435497    0.0800
     45 H45        -7.1958    3.5915   54.0148 H       1  ZINC000469435497    0.0800
     46 H46        -8.4220    4.0269   55.2517 H       1  ZINC000469435497    0.0700
     47 H47        -6.5424    1.6469   55.1676 H       1  ZINC000469435497    0.0800
     48 H48        -7.1338    2.5681   56.5831 H       1  ZINC000469435497    0.0800
     49 H49        -7.9838    0.0229   57.5418 H       1  ZINC000469435497    0.1400
     50 H50        -8.3192   -0.7090   63.6334 H       1  ZINC000469435497    0.1400
     51 H51        -9.3165    0.2794   65.6461 H       1  ZINC000469435497    0.1300
@<TRIPOS>BOND
     1     1     2    1
     2     1    28    1
     3     1    29    1
     4     1    30    1
     5     2    27    1
     6     2     3    1
     7     2     4    1
     8     3    31    1
     9     3    32    1
    10     3    33    1
    11     4     5    1
    12     4    34    1
    13     4    35    1
    14     5    26   ar
    15     5     6   ar
    16     6     7   ar
    17     6    36    1
    18     7     8    1
    19     7    24   ar
    20     8     9   am
    21     8    37    1
    22     9    10    2
    23     9    11    1
    24    11    12    1
    25    11    38    1
    26    11    39    1
    27    12    13   am
    28    12    40    1
    29    13    14    2
    30    13    15    1
    31    15    23   ar
    32    15    16   ar
    33    16    17   ar
    34    16    41    1
    35    17    18   ar
    36    17    42    1
    37    18    22   ar
    38    18    19    1
    39    19    20    1
    40    19    43    1
    41    19    44    1
    42    20    21    1
    43    20    45    1
    44    20    46    1
    45    21    22    1
    46    21    47    1
    47    21    48    1
    48    22    23   ar
    49    23    49    1
    50    24    25   ar
    51    24    50    1
    52    25    26   ar
    53    25    51    1
    54    26    27    1
@<TRIPOS>SUBSTRUCTURE
     1 ZINC000469435497        1 TEMP              0 ****  ****    0 ROOT


##########                                Name:    ZINC000364058410
##########                DOCK_Rotatable_Bonds:                   5
##########                         Heavy_Atoms:                  25
##########                    Molecular_Weight:             358.464
##########                DOCK_Rotatable_Bonds:                   5
##########                       Formal_Charge:           0.0100002
##########                     HBond_Acceptors:                   7
##########                        HBond_Donors:                   0
##########                         Heavy_Atoms:                  25
##########                          Grid_Score:          -28.187529
##########                     Grid_vdw_energy:          -27.169933
##########                      Grid_es_energy:           -1.017595
##########           Internal_energy_repulsive:           61.236885

@<TRIPOS>MOLECULE
ZINC000364058410
 47 50 1 0 0
SMALL
USER_CHARGES


@<TRIPOS>ATOM
      1 C1        -13.8215   -5.5071   56.8752 C.3     1  ZINC000364058410   -0.0700
      2 C2        -14.6303   -4.3386   57.3768 C.2     1  ZINC000364058410   -0.2500
      3 C3        -15.7514   -4.4118   58.1309 C.2     1  ZINC000364058410    0.0800
      4 N4        -16.1706   -3.1511   58.3680 N.pl3   1  ZINC000364058410   -0.3600
      5 C5        -17.3508   -2.7673   59.1464 C.3     1  ZINC000364058410    0.1300
      6 C6        -17.4571   -3.4835   60.5051 C.3     1  ZINC000364058410    0.1100
      7 N7        -16.6969   -2.3431   61.0525 N.am    1  ZINC000364058410   -0.6500
      8 C8        -15.8969   -2.1677   62.1228 C.2     1  ZINC000364058410    0.5600
      9 O9        -15.6818   -3.0928   62.8771 O.2     1  ZINC000364058410   -0.5000
     10 C10       -15.2698   -0.8223   62.3825 C.3     1  ZINC000364058410    0.1400
     11 H11       -15.8337   -0.0493   61.8603 H       1  ZINC000364058410    0.0900
     12 C12       -15.2762   -0.5345   63.8872 C.3     1  ZINC000364058410   -0.1200
     13 C13       -14.5154    0.7657   64.1571 C.3     1  ZINC000364058410   -0.1200
     14 C14       -13.0627    0.6128   63.7007 C.3     1  ZINC000364058410   -0.1400
     15 C15       -13.0312    0.3380   62.1939 C.3     1  ZINC000364058410    0.1000
     16 N16       -13.8804   -0.8260   61.9048 N.am    1  ZINC000364058410   -0.6000
     17 C17       -13.3923   -1.8786   61.2190 C.2     1  ZINC000364058410    0.5900
     18 O18       -14.1058   -2.8367   60.9860 O.2     1  ZINC000364058410   -0.4900
     19 C19       -12.0023   -1.8696   60.7539 C.2     1  ZINC000364058410   -0.2600
     20 C20       -11.5730   -1.3914   59.5480 C.2     1  ZINC000364058410   -0.0600
     21 C21       -10.2147   -1.5063   59.3700 C.2     1  ZINC000364058410   -0.1400
     22 C22        -9.5528   -2.0590   60.3933 C.2     1  ZINC000364058410   -0.2400
     23 S23       -10.6192   -2.4653   61.6615 S.3     1  ZINC000364058410    0.2100
     24 C24       -17.1645   -1.4718   59.9569 C.3     1  ZINC000364058410    0.0900
     25 N25       -15.2775   -2.2743   57.7388 N.2     1  ZINC000364058410   -0.3000
     26 C26       -14.3514   -2.9869   57.1501 C.2     1  ZINC000364058410    0.0500
     27 H27       -13.0577   -5.7623   57.6097 H       1  ZINC000364058410    0.0600
     28 H28       -14.4776   -6.3636   56.7206 H       1  ZINC000364058410    0.0600
     29 H29       -13.3440   -5.2404   55.9322 H       1  ZINC000364058410    0.0600
     30 H30       -16.2259   -5.3169   58.4804 H       1  ZINC000364058410    0.1700
     31 H31       -18.2710   -2.7913   58.5627 H       1  ZINC000364058410    0.1300
     32 H32       -18.4760   -3.5553   60.8854 H       1  ZINC000364058410    0.1100
     33 H33       -16.9188   -4.4304   60.5458 H       1  ZINC000364058410    0.0900
     34 H34       -16.3046   -0.4329   64.2338 H       1  ZINC000364058410    0.0800
     35 H35       -14.7928   -1.3555   64.4166 H       1  ZINC000364058410    0.0800
     36 H36       -14.9847    1.5818   63.6076 H       1  ZINC000364058410    0.0700
     37 H37       -14.5396    0.9857   65.2244 H       1  ZINC000364058410    0.0800
     38 H38       -12.5156    1.5310   63.9145 H       1  ZINC000364058410    0.0800
     39 H39       -12.6001   -0.2190   64.2319 H       1  ZINC000364058410    0.0700
     40 H40       -13.4104    1.2069   61.6561 H       1  ZINC000364058410    0.0800
     41 H41       -12.0077    0.1305   61.8817 H       1  ZINC000364058410    0.0900
     42 H42       -12.2349   -0.9660   58.8082 H       1  ZINC000364058410    0.1500
     43 H43        -9.7182   -1.1750   58.4699 H       1  ZINC000364058410    0.1500
     44 H44        -8.4854   -2.2222   60.4150 H       1  ZINC000364058410    0.1700
     45 H45       -16.3925   -0.8125   59.5599 H       1  ZINC000364058410    0.0900
     46 H46       -18.0975   -0.9526   60.1762 H       1  ZINC000364058410    0.1100
     47 H47       -13.5197   -2.5987   56.5811 H       1  ZINC000364058410    0.1800
@<TRIPOS>BOND
     1     1     2    1
     2     1    27    1
     3     1    28    1
     4     1    29    1
     5     2    26    1
     6     2     3    2
     7     3     4    1
     8     3    30    1
     9     4     5    1
    10     4    25    1
    11     5    24    1
    12     5     6    1
    13     5    31    1
    14     6     7    1
    15     6    32    1
    16     6    33    1
    17     7     8   am
    18     7    24    1
    19     8     9    2
    20     8    10    1
    21    10    11    1
    22    10    16    1
    23    10    12    1
    24    12    13    1
    25    12    34    1
    26    12    35    1
    27    13    14    1
    28    13    36    1
    29    13    37    1
    30    14    15    1
    31    14    38    1
    32    14    39    1
    33    15    16    1
    34    15    40    1
    35    15    41    1
    36    16    17   am
    37    17    18    2
    38    17    19    1
    39    19    23    1
    40    19    20    2
    41    20    21    1
    42    20    42    1
    43    21    22    2
    44    21    43    1
    45    22    23    1
    46    22    44    1
    47    24    45    1
    48    24    46    1
    49    25    26    2
    50    26    47    1
@<TRIPOS>SUBSTRUCTURE
     1 ZINC000364058410        1 TEMP              0 ****  ****    0 ROOT


##########                                Name:    ZINC000981048968
##########                DOCK_Rotatable_Bonds:                   7
##########                         Heavy_Atoms:                  25
##########                    Molecular_Weight:             344.414
##########                DOCK_Rotatable_Bonds:                   7
##########                       Formal_Charge:                0.02
##########                     HBond_Acceptors:                   7
##########                        HBond_Donors:                   2
##########                         Heavy_Atoms:                  25
##########                          Grid_Score:          -28.163813
##########                     Grid_vdw_energy:          -26.230009
##########                      Grid_es_energy:           -1.933803
##########           Internal_energy_repulsive:            5.637344

@<TRIPOS>MOLECULE
ZINC000981048968
 49 52 1 0 0
SMALL
USER_CHARGES


@<TRIPOS>ATOM
      1 C1         -5.9796    2.9302   67.4261 C.3     1  ZINC000981048968   -0.0800
      2 C2         -6.7029    1.7230   66.8867 C.2     1  ZINC000981048968   -0.0100
      3 C3         -7.5942    1.7340   65.8838 C.2     1  ZINC000981048968   -0.1600
      4 C4         -8.0264    0.3393   65.7121 C.2     1  ZINC000981048968   -0.2300
      5 C5         -9.0002   -0.1776   64.7340 C.2     1  ZINC000981048968    0.5900
      6 O6         -9.2622   -1.3648   64.7061 O.2     1  ZINC000981048968   -0.5300
      7 N7         -9.6003    0.6656   63.8705 N.am    1  ZINC000981048968   -0.7300
      8 C8        -10.5670    0.1514   62.8971 C.3     1  ZINC000981048968    0.1500
      9 H9        -10.4651   -0.9311   62.8207 H       1  ZINC000981048968    0.0900
     10 C10       -10.3014    0.7864   61.5306 C.3     1  ZINC000981048968   -0.1300
     11 C11       -11.3110    0.2496   60.5140 C.3     1  ZINC000981048968   -0.1200
     12 C12       -12.7291    0.5973   60.9711 C.3     1  ZINC000981048968   -0.1100
     13 C13       -12.9947   -0.0376   62.3375 C.3     1  ZINC000981048968    0.1000
     14 H14       -12.8927   -1.1201   62.2612 H       1  ZINC000981048968    0.0500
     15 N15       -14.3562    0.2963   62.7764 N.3     1  ZINC000981048968   -0.6800
     16 C16       -14.9215   -0.7786   63.6027 C.3     1  ZINC000981048968    0.1500
     17 C17       -15.3479   -1.9213   62.7177 C.2     1  ZINC000981048968    0.1800
     18 N18       -15.3694   -3.1793   63.0426 N.2     1  ZINC000981048968   -0.3800
     19 O19       -15.7627   -3.8473   62.1096 O.3     1  ZINC000981048968    0.0800
     20 C20       -16.0379   -3.0548   61.0693 C.2     1  ZINC000981048968    0.2100
     21 C21       -16.5501   -3.4899   59.7204 C.3     1  ZINC000981048968   -0.0800
     22 C22       -17.5916   -2.5996   59.0395 C.3     1  ZINC000981048968   -0.1600
     23 C23       -16.1572   -2.6424   58.5087 C.3     1  ZINC000981048968   -0.1500
     24 N24       -15.7818   -1.8258   61.4481 N.2     1  ZINC000981048968   -0.4600
     25 C25       -11.9851    0.4992   63.3541 C.3     1  ZINC000981048968   -0.1300
     26 C26        -7.3370   -0.3765   66.6466 C.2     1  ZINC000981048968    0.0200
     27 O27        -6.5539    0.4647   67.3289 O.3     1  ZINC000981048968   -0.1700
     28 H28        -5.3146    2.6244   68.2338 H       1  ZINC000981048968    0.0800
     29 H29        -5.3954    3.3900   66.6290 H       1  ZINC000981048968    0.0900
     30 H30        -6.7056    3.6492   67.8056 H       1  ZINC000981048968    0.0900
     31 H31        -7.9265    2.5921   65.3184 H       1  ZINC000981048968    0.1600
     32 H32        -9.3922    1.6127   63.8936 H       1  ZINC000981048968    0.4000
     33 H33       -10.4034    1.8690   61.6070 H       1  ZINC000981048968    0.0700
     34 H34        -9.2912    0.5386   61.2050 H       1  ZINC000981048968    0.0700
     35 H35       -11.1218    0.7019   59.5405 H       1  ZINC000981048968    0.0700
     36 H36       -11.2091   -0.8330   60.4376 H       1  ZINC000981048968    0.0600
     37 H37       -12.8310    1.6799   61.0475 H       1  ZINC000981048968    0.0700
     38 H38       -13.4484    0.2149   60.2469 H       1  ZINC000981048968    0.0700
     39 H39       -14.3717    1.1770   63.2686 H       1  ZINC000981048968    0.3500
     40 H40       -14.1686   -1.1277   64.3094 H       1  ZINC000981048968    0.1100
     41 H41       -15.7854   -0.4005   64.1494 H       1  ZINC000981048968    0.0600
     42 H42       -16.6358   -4.5667   59.5750 H       1  ZINC000981048968    0.1500
     43 H43       -18.3627   -3.0906   58.4461 H       1  ZINC000981048968    0.1200
     44 H44       -17.9063   -1.6992   59.5672 H       1  ZINC000981048968    0.1100
     45 H45       -15.5283   -1.7703   58.6872 H       1  ZINC000981048968    0.1000
     46 H46       -15.9848   -3.1617   57.5660 H       1  ZINC000981048968    0.1200
     47 H47       -12.1742    0.0470   64.3277 H       1  ZINC000981048968    0.0700
     48 H48       -12.0870    1.5818   63.4305 H       1  ZINC000981048968    0.0800
     49 H49        -7.4091   -1.4423   66.8057 H       1  ZINC000981048968    0.2100
@<TRIPOS>BOND
     1     1     2    1
     2     1    28    1
     3     1    29    1
     4     1    30    1
     5     2    27    1
     6     2     3    2
     7     3     4    1
     8     3    31    1
     9     4     5    1
    10     4    26    2
    11     5     6    2
    12     5     7   am
    13     7     8    1
    14     7    32    1
    15     8     9    1
    16     8    25    1
    17     8    10    1
    18    10    11    1
    19    10    33    1
    20    10    34    1
    21    11    12    1
    22    11    35    1
    23    11    36    1
    24    12    13    1
    25    12    37    1
    26    12    38    1
    27    13    14    1
    28    13    15    1
    29    13    25    1
    30    15    16    1
    31    15    39    1
    32    16    17    1
    33    16    40    1
    34    16    41    1
    35    17    24    1
    36    17    18    2
    37    18    19    1
    38    19    20    1
    39    20    21    1
    40    20    24    2
    41    21    23    1
    42    21    22    1
    43    21    42    1
    44    22    23    1
    45    22    43    1
    46    22    44    1
    47    23    45    1
    48    23    46    1
    49    25    47    1
    50    25    48    1
    51    26    27    1
    52    26    49    1
@<TRIPOS>SUBSTRUCTURE
     1 ZINC000981048968        1 TEMP              0 ****  ****    0 ROOT


##########                                Name:    ZINC000474368324
##########                DOCK_Rotatable_Bonds:                   9
##########                         Heavy_Atoms:                  27
##########                    Molecular_Weight:             417.332
##########                DOCK_Rotatable_Bonds:                   9
##########                       Formal_Charge:        -1.63913e-07
##########                     HBond_Acceptors:                   8
##########                        HBond_Donors:                   1
##########                         Heavy_Atoms:                  27
##########                          Grid_Score:          -28.158539
##########                     Grid_vdw_energy:          -28.883549
##########                      Grid_es_energy:            0.725009
##########           Internal_energy_repulsive:           27.376520

@<TRIPOS>MOLECULE
ZINC000474368324
 53 54 1 0 0
SMALL
USER_CHARGES


@<TRIPOS>ATOM
      1 C1         -5.8218    0.9205   51.9869 C.3     1  ZINC000474368324   -0.1500
      2 C2         -6.7288    0.1053   51.0630 C.3     1  ZINC000474368324    0.0600
      3 O3         -8.0015   -0.1323   51.7205 O.3     1  ZINC000474368324   -0.3300
      4 C4         -8.7573    0.9432   51.9921 C.2     1  ZINC000474368324    0.4700
      5 O5         -8.8111    1.8581   51.2048 O.2     1  ZINC000474368324   -0.5100
      6 C6         -9.5387    1.0094   53.2790 C.3     1  ZINC000474368324   -0.0400
      7 C7        -10.6790    2.0189   53.1316 C.3     1  ZINC000474368324    0.0600
      8 O8        -10.1379    3.3379   53.0352 O.3     1  ZINC000474368324   -0.3700
      9 C9        -11.0414    4.2979   52.4836 C.3     1  ZINC000474368324    0.0300
     10 C10       -10.1183   -0.3713   53.5951 C.3     1  ZINC000474368324   -0.1200
     11 C11       -10.9405   -0.2923   54.8853 C.3     1  ZINC000474368324    0.1100
     12 N12       -10.0966    0.2662   55.9505 N.am    1  ZINC000474368324   -0.6300
     13 C13        -9.9473   -0.3850   57.1209 C.2     1  ZINC000474368324    0.7100
     14 O14        -9.2462    0.0877   57.9946 O.2     1  ZINC000474368324   -0.5800
     15 N15       -10.5753   -1.5603   57.3231 N.am    1  ZINC000474368324   -0.7400
     16 C16       -10.4132   -2.2682   58.5953 C.3     1  ZINC000474368324    0.2000
     17 H17        -9.3775   -2.1892   58.9257 H       1  ZINC000474368324    0.1100
     18 C18       -10.7780   -3.7423   58.4089 C.3     1  ZINC000474368324   -0.1600
     19 C19       -11.3190   -1.6536   59.6312 C.ar    1  ZINC000474368324   -0.0700
     20 C20       -12.6538   -1.4412   59.3432 C.ar    1  ZINC000474368324   -0.1000
     21 C21       -13.4858   -0.8779   60.2931 C.ar    1  ZINC000474368324   -0.0900
     22 C22       -12.9834   -0.5266   61.5317 C.ar    1  ZINC000474368324   -0.1000
     23 C23       -11.6473   -0.7385   61.8218 C.ar    1  ZINC000474368324   -0.0300
     24 Cl24      -11.0158   -0.2974   63.3774 Cl      1  ZINC000474368324   -0.0400
     25 C25       -10.8156   -1.3075   60.8724 C.ar    1  ZINC000474368324   -0.0300
     26 Cl26       -9.1390   -1.5746   61.2350 Cl      1  ZINC000474368324   -0.0400
     27 C27        -9.4180    1.5480   55.7151 C.3     1  ZINC000474368324    0.1300
     28 C28        -8.6128    1.4484   54.4157 C.3     1  ZINC000474368324   -0.1200
     29 H29        -4.8665    1.0989   51.4933 H       1  ZINC000474368324    0.0800
     30 H30        -6.2974    1.8747   52.2135 H       1  ZINC000474368324    0.0700
     31 H31        -5.6553    0.3687   52.9120 H       1  ZINC000474368324    0.0700
     32 H32        -6.8953    0.6571   50.1378 H       1  ZINC000474368324    0.0700
     33 H33        -6.2533   -0.8489   50.8364 H       1  ZINC000474368324    0.0700
     34 H34       -11.2496    1.7935   52.2307 H       1  ZINC000474368324    0.0700
     35 H35       -11.3334    1.9573   54.0011 H       1  ZINC000474368324    0.0600
     36 H36       -11.3257    3.9925   51.4766 H       1  ZINC000474368324    0.0400
     37 H37       -11.9317    4.3604   53.1093 H       1  ZINC000474368324    0.0400
     38 H38       -10.5559    5.2730   52.4441 H       1  ZINC000474368324    0.0900
     39 H39       -10.7592   -0.6935   52.7744 H       1  ZINC000474368324    0.1000
     40 H40        -9.3056   -1.0860   53.7249 H       1  ZINC000474368324    0.0800
     41 H41       -11.8054    0.3523   54.7286 H       1  ZINC000474368324    0.0800
     42 H42       -11.2730   -1.2910   55.1684 H       1  ZINC000474368324    0.0800
     43 H43       -11.1348   -1.9374   56.6261 H       1  ZINC000474368324    0.3900
     44 H44       -11.8138   -3.8213   58.0786 H       1  ZINC000474368324    0.0600
     45 H45       -10.1229   -4.1868   57.6596 H       1  ZINC000474368324    0.0700
     46 H46       -10.6574   -4.2690   59.3555 H       1  ZINC000474368324    0.0700
     47 H47       -13.0474   -1.7152   58.3754 H       1  ZINC000474368324    0.1300
     48 H48       -14.5288   -0.7121   60.0669 H       1  ZINC000474368324    0.1400
     49 H49       -13.6336   -0.0863   62.2731 H       1  ZINC000474368324    0.1500
     50 H50       -10.1587    2.3427   55.6261 H       1  ZINC000474368324    0.0700
     51 H51        -8.7459    1.7636   56.5458 H       1  ZINC000474368324    0.1100
     52 H52        -7.8143    0.7166   54.5377 H       1  ZINC000474368324    0.0900
     53 H53        -8.1822    2.4213   54.1790 H       1  ZINC000474368324    0.0900
@<TRIPOS>BOND
     1     1     2    1
     2     1    29    1
     3     1    30    1
     4     1    31    1
     5     2     3    1
     6     2    32    1
     7     2    33    1
     8     3     4    1
     9     4     5    2
    10     4     6    1
    11     6    28    1
    12     6     7    1
    13     6    10    1
    14     7     8    1
    15     7    34    1
    16     7    35    1
    17     8     9    1
    18     9    36    1
    19     9    37    1
    20     9    38    1
    21    10    11    1
    22    10    39    1
    23    10    40    1
    24    11    12    1
    25    11    41    1
    26    11    42    1
    27    12    13   am
    28    12    27    1
    29    13    14    2
    30    13    15   am
    31    15    16    1
    32    15    43    1
    33    16    17    1
    34    16    18    1
    35    16    19    1
    36    18    44    1
    37    18    45    1
    38    18    46    1
    39    19    25   ar
    40    19    20   ar
    41    20    21   ar
    42    20    47    1
    43    21    22   ar
    44    21    48    1
    45    22    23   ar
    46    22    49    1
    47    23    24    1
    48    23    25   ar
    49    25    26    1
    50    27    28    1
    51    27    50    1
    52    27    51    1
    53    28    52    1
    54    28    53    1
@<TRIPOS>SUBSTRUCTURE
     1 ZINC000474368324        1 TEMP              0 ****  ****    0 ROOT


##########                                Name:    ZINC001139743874
##########                DOCK_Rotatable_Bonds:                   5
##########                         Heavy_Atoms:                  28
##########                    Molecular_Weight:             382.506
##########                DOCK_Rotatable_Bonds:                   5
##########                       Formal_Charge:           0.0199992
##########                     HBond_Acceptors:                   6
##########                        HBond_Donors:                   0
##########                         Heavy_Atoms:                  28
##########                          Grid_Score:          -28.122816
##########                     Grid_vdw_energy:          -27.518362
##########                      Grid_es_energy:           -0.604454
##########           Internal_energy_repulsive:           28.345459

@<TRIPOS>MOLECULE
ZINC001139743874
 58 61 1 0 0
SMALL
USER_CHARGES


@<TRIPOS>ATOM
      1 C1        -12.0187    1.3314   65.6196 C.3     1  ZINC001139743874   -0.1800
      2 C2        -11.0328    2.4479   65.2694 C.3     1  ZINC001139743874    0.1400
      3 C3        -11.7524    3.7972   65.3165 C.3     1  ZINC001139743874   -0.1800
      4 C4         -9.8827    2.4476   66.2785 C.3     1  ZINC001139743874   -0.1400
      5 O5        -10.5056    2.2269   63.9346 O.3     1  ZINC001139743874   -0.3600
      6 C6        -10.0251    0.9989   63.6627 C.2     1  ZINC001139743874    0.6500
      7 O7         -9.6178    0.2927   64.5638 O.2     1  ZINC001139743874   -0.5700
      8 N8         -9.9957    0.5530   62.3912 N.am    1  ZINC001139743874   -0.5900
      9 C9        -10.4704    1.3700   61.3198 C.3     1  ZINC001139743874    0.1000
     10 C10       -11.9974    1.2908   61.0354 C.3     1  ZINC001139743874   -0.1300
     11 C11       -12.4694   -0.1859   61.1698 C.3     1  ZINC001139743874   -0.0900
     12 C12       -11.4612   -1.1431   60.6243 C.3     1  ZINC001139743874   -0.0800
     13 C13       -12.0098   -2.2369   59.7004 C.3     1  ZINC001139743874    0.0100
     14 N14       -11.6786   -1.3166   58.5885 N.3     1  ZINC001139743874   -0.4700
     15 C15       -11.0594   -2.0422   57.4714 C.3     1  ZINC001139743874    0.0600
     16 C16       -12.1017   -2.8812   56.7781 C.ar    1  ZINC001139743874   -0.1200
     17 C17       -12.7754   -2.3776   55.6670 C.ar    1  ZINC001139743874    0.1500
     18 N18       -13.6877   -3.0798   55.0397 N.ar    1  ZINC001139743874   -0.4600
     19 C19       -14.0110   -4.3118   55.4395 C.ar    1  ZINC001139743874    0.0800
     20 C20       -14.9918   -5.0643   54.7627 C.ar    1  ZINC001139743874   -0.0400
     21 C21       -15.2753   -6.3178   55.2226 C.ar    1  ZINC001139743874   -0.1600
     22 C22       -14.6016   -6.8215   56.3341 C.ar    1  ZINC001139743874    0.1300
     23 N23       -13.6897   -6.1193   56.9617 N.ar    1  ZINC001139743874   -0.4700
     24 C24       -13.3662   -4.8871   56.5616 C.ar    1  ZINC001139743874    0.0800
     25 C25       -12.3819   -4.1369   57.2350 C.ar    1  ZINC001139743874   -0.0400
     26 C26       -10.6524   -0.6468   59.4201 C.3     1  ZINC001139743874    0.0000
     27 C27       -10.5945   -1.6830   61.7662 C.3     1  ZINC001139743874   -0.1300
     28 C28        -9.4591   -0.8070   62.0694 C.3     1  ZINC001139743874    0.1400
     29 H29       -12.8381    1.3316   64.9007 H       1  ZINC001139743874    0.0900
     30 H30       -11.5060    0.3702   65.5860 H       1  ZINC001139743874    0.0600
     31 H31       -12.4144    1.4973   66.6216 H       1  ZINC001139743874    0.0700
     32 H32       -12.1482    3.9631   66.3185 H       1  ZINC001139743874    0.0700
     33 H33       -11.0500    4.5925   65.0671 H       1  ZINC001139743874    0.0600
     34 H34       -12.5718    3.7973   64.5977 H       1  ZINC001139743874    0.0900
     35 H35        -9.3700    1.4864   66.2448 H       1  ZINC001139743874    0.0700
     36 H36        -9.1804    3.2429   66.0290 H       1  ZINC001139743874    0.0700
     37 H37       -10.2785    2.6135   67.2805 H       1  ZINC001139743874    0.0800
     38 H38       -10.2186    2.4066   61.5441 H       1  ZINC001139743874    0.0700
     39 H39        -9.9392    1.0842   60.4119 H       1  ZINC001139743874    0.0900
     40 H40       -12.5339    1.9112   61.7534 H       1  ZINC001139743874    0.0700
     41 H41       -12.1982    1.6465   60.0248 H       1  ZINC001139743874    0.0800
     42 H42       -12.6382   -0.4101   62.2231 H       1  ZINC001139743874    0.0600
     43 H43       -13.4066   -0.3099   60.6273 H       1  ZINC001139743874    0.0700
     44 H44       -11.4192   -3.1529   59.7041 H       1  ZINC001139743874    0.0700
     45 H45       -13.0784   -2.4173   59.8186 H       1  ZINC001139743874    0.0900
     46 H46       -10.6378   -1.3284   56.7636 H       1  ZINC001139743874    0.0600
     47 H47       -10.2675   -2.6876   57.8516 H       1  ZINC001139743874    0.0900
     48 H48       -12.5403   -1.3843   55.3142 H       1  ZINC001139743874    0.1700
     49 H49       -15.5056   -4.6598   53.9032 H       1  ZINC001139743874    0.1500
     50 H50       -16.0219   -6.9194   54.7255 H       1  ZINC001139743874    0.1500
     51 H51       -14.8368   -7.8147   56.6872 H       1  ZINC001139743874    0.1700
     52 H52       -11.8657   -4.5429   58.0924 H       1  ZINC001139743874    0.1400
     53 H53       -10.6408    0.4381   59.3151 H       1  ZINC001139743874    0.1000
     54 H54        -9.6617   -1.0942   59.3412 H       1  ZINC001139743874    0.0700
     55 H55       -11.2113   -1.7856   62.6590 H       1  ZINC001139743874    0.0700
     56 H56       -10.2152   -2.6659   61.4868 H       1  ZINC001139743874    0.0800
     57 H57        -8.7975   -0.7507   61.2050 H       1  ZINC001139743874    0.0800
     58 H58        -8.9117   -1.1989   62.9266 H       1  ZINC001139743874    0.1000
@<TRIPOS>BOND
     1     1     2    1
     2     1    29    1
     3     1    30    1
     4     1    31    1
     5     2     3    1
     6     2     4    1
     7     2     5    1
     8     3    32    1
     9     3    33    1
    10     3    34    1
    11     4    35    1
    12     4    36    1
    13     4    37    1
    14     5     6    1
    15     6     7    2
    16     6     8   am
    17     8    28    1
    18     8     9    1
    19     9    10    1
    20     9    38    1
    21     9    39    1
    22    10    11    1
    23    10    40    1
    24    10    41    1
    25    11    12    1
    26    11    42    1
    27    11    43    1
    28    12    26    1
    29    12    13    1
    30    12    27    1
    31    13    14    1
    32    13    44    1
    33    13    45    1
    34    14    15    1
    35    14    26    1
    36    15    16    1
    37    15    46    1
    38    15    47    1
    39    16    25   ar
    40    16    17   ar
    41    17    18   ar
    42    17    48    1
    43    18    19   ar
    44    19    24   ar
    45    19    20   ar
    46    20    21   ar
    47    20    49    1
    48    21    22   ar
    49    21    50    1
    50    22    23   ar
    51    22    51    1
    52    23    24   ar
    53    24    25   ar
    54    25    52    1
    55    26    53    1
    56    26    54    1
    57    27    28    1
    58    27    55    1
    59    27    56    1
    60    28    57    1
    61    28    58    1
@<TRIPOS>SUBSTRUCTURE
     1 ZINC001139743874        1 TEMP              0 ****  ****    0 ROOT


##########                                Name:    ZINC000655235556
##########                DOCK_Rotatable_Bonds:                   6
##########                         Heavy_Atoms:                  23
##########                    Molecular_Weight:             336.778
##########                DOCK_Rotatable_Bonds:                   6
##########                       Formal_Charge:         -0.00999996
##########                     HBond_Acceptors:                   8
##########                        HBond_Donors:                   2
##########                         Heavy_Atoms:                  23
##########                          Grid_Score:          -28.115185
##########                     Grid_vdw_energy:          -25.605446
##########                      Grid_es_energy:           -2.509739
##########           Internal_energy_repulsive:            9.402448

@<TRIPOS>MOLECULE
ZINC000655235556
 40 42 1 0 0
SMALL
USER_CHARGES


@<TRIPOS>ATOM
      1 C1        -11.3073    2.4970   61.4641 C.3     1  ZINC000655235556    0.0200
      2 O2        -11.1212    1.0837   61.5653 O.3     1  ZINC000655235556   -0.2700
      3 C3        -10.4505    0.6271   62.6523 C.ar    1  ZINC000655235556    0.2000
      4 C4        -10.3263    1.4246   63.7792 C.ar    1  ZINC000655235556   -0.2100
      5 C5         -9.6428    0.9576   64.8864 C.ar    1  ZINC000655235556    0.0300
      6 Cl6        -9.4912    1.9619   66.2943 Cl      1  ZINC000655235556   -0.0500
      7 C7         -9.0781   -0.3088   64.8788 C.ar    1  ZINC000655235556   -0.1600
      8 C8         -9.1926   -1.1139   63.7667 C.ar    1  ZINC000655235556   -0.0300
      9 C9         -9.8849   -0.6558   62.6430 C.ar    1  ZINC000655235556   -0.1700
     10 C10       -10.0113   -1.5131   61.4497 C.2     1  ZINC000655235556    0.5700
     11 O11       -11.0975   -1.9592   61.1338 O.2     1  ZINC000655235556   -0.5100
     12 N12        -8.9228   -1.8022   60.7093 N.am    1  ZINC000655235556   -0.7300
     13 C13        -9.0486   -2.6524   59.5228 C.3     1  ZINC000655235556    0.2100
     14 C14        -9.5106   -1.8197   58.3548 C.2     1  ZINC000655235556    0.2600
     15 N15       -10.2608   -2.2328   57.3658 N.2     1  ZINC000655235556   -0.5100
     16 C16       -10.4732   -1.2328   56.5113 C.2     1  ZINC000655235556    0.2200
     17 C17       -11.2906   -1.3190   55.2481 C.3     1  ZINC000655235556    0.1700
     18 H18       -10.6493   -1.5940   54.4109 H       1  ZINC000655235556    0.1100
     19 C19       -11.9648    0.0410   54.9668 C.3     1  ZINC000655235556   -0.1400
     20 C20       -13.3645   -0.3862   54.4471 C.3     1  ZINC000655235556   -0.1500
     21 C21       -13.6147   -1.6617   55.2906 C.3     1  ZINC000655235556    0.0500
     22 O22       -12.3280   -2.2938   55.4063 O.3     1  ZINC000655235556   -0.3700
     23 N23        -9.8582   -0.1647   56.9467 N.2     1  ZINC000655235556   -0.2800
     24 N24        -9.2284   -0.5214   58.1503 N.pl3   1  ZINC000655235556   -0.4700
     25 H25       -11.8713    2.8519   62.3266 H       1  ZINC000655235556    0.0600
     26 H26       -10.3357    2.9904   61.4373 H       1  ZINC000655235556    0.0600
     27 H27       -11.8567    2.7267   60.5511 H       1  ZINC000655235556    0.1100
     28 H28       -10.7636    2.4120   63.7921 H       1  ZINC000655235556    0.1500
     29 H29        -8.5459   -0.6654   65.7482 H       1  ZINC000655235556    0.1400
     30 H30        -8.7510   -2.0995   63.7650 H       1  ZINC000655235556    0.1400
     31 H31        -8.0561   -1.4473   60.9619 H       1  ZINC000655235556    0.4000
     32 H32        -8.0813   -3.0982   59.2912 H       1  ZINC000655235556    0.1000
     33 H33        -9.7753   -3.4414   59.7166 H       1  ZINC000655235556    0.1100
     34 H34       -12.0528    0.6270   55.8817 H       1  ZINC000655235556    0.0800
     35 H35       -11.4191    0.5936   54.2020 H       1  ZINC000655235556    0.0900
     36 H36       -14.1123    0.3780   54.6592 H       1  ZINC000655235556    0.0900
     37 H37       -13.3342   -0.6187   53.3827 H       1  ZINC000655235556    0.0800
     38 H38       -13.9959   -1.3947   56.2763 H       1  ZINC000655235556    0.0600
     39 H39       -14.3152   -2.3219   54.7793 H       1  ZINC000655235556    0.0900
     40 H40        -8.6912    0.0532   58.7178 H       1  ZINC000655235556    0.4400
@<TRIPOS>BOND
     1     1     2    1
     2     1    25    1
     3     1    26    1
     4     1    27    1
     5     2     3    1
     6     3     9   ar
     7     3     4   ar
     8     4     5   ar
     9     4    28    1
    10     5     6    1
    11     5     7   ar
    12     7     8   ar
    13     7    29    1
    14     8     9   ar
    15     8    30    1
    16     9    10    1
    17    10    11    2
    18    10    12   am
    19    12    13    1
    20    12    31    1
    21    13    14    1
    22    13    32    1
    23    13    33    1
    24    14    24    1
    25    14    15    2
    26    15    16    1
    27    16    17    1
    28    16    23    2
    29    17    18    1
    30    17    22    1
    31    17    19    1
    32    19    20    1
    33    19    34    1
    34    19    35    1
    35    20    21    1
    36    20    36    1
    37    20    37    1
    38    21    22    1
    39    21    38    1
    40    21    39    1
    41    23    24    1
    42    24    40    1
@<TRIPOS>SUBSTRUCTURE
     1 ZINC000655235556        1 TEMP              0 ****  ****    0 ROOT


##########                                Name:    ZINC000347662449
##########                DOCK_Rotatable_Bonds:                   5
##########                         Heavy_Atoms:                  23
##########                    Molecular_Weight:              327.45
##########                DOCK_Rotatable_Bonds:                   5
##########                       Formal_Charge:                0.03
##########                     HBond_Acceptors:                   5
##########                        HBond_Donors:                   0
##########                         Heavy_Atoms:                  23
##########                          Grid_Score:          -28.114456
##########                     Grid_vdw_energy:          -26.962027
##########                      Grid_es_energy:           -1.152429
##########           Internal_energy_repulsive:            3.730128

@<TRIPOS>MOLECULE
ZINC000347662449
 44 46 1 0 0
SMALL
USER_CHARGES


@<TRIPOS>ATOM
      1 C1        -15.5258   -7.2075   54.7706 C.2     1  ZINC000347662449   -0.1800
      2 C2        -14.8866   -6.2153   55.3390 C.2     1  ZINC000347662449   -0.1700
      3 C3        -14.6306   -6.2360   56.8238 C.3     1  ZINC000347662449    0.1600
      4 N4        -14.5417   -4.8616   57.3233 N.am    1  ZINC000347662449   -0.6200
      5 C5        -15.6946   -4.0581   57.7465 C.3     1  ZINC000347662449    0.1100
      6 C6        -15.1052   -2.8980   58.5791 C.3     1  ZINC000347662449   -0.1100
      7 C7        -13.6731   -2.7941   58.0053 C.3     1  ZINC000347662449   -0.1200
      8 H8        -13.6338   -2.0497   57.2100 H       1  ZINC000347662449    0.1400
      9 S9        -12.4941   -2.3820   59.3154 S.3     1  ZINC000347662449    0.0300
     10 C10       -11.4507   -1.2593   58.4461 C.2     1  ZINC000347662449    0.1900
     11 N11       -11.4368   -1.0726   57.1467 N.2     1  ZINC000347662449   -0.4500
     12 C12       -10.5165   -0.1427   56.8403 C.2     1  ZINC000347662449   -0.0100
     13 C13        -9.9334    0.2688   57.9791 C.2     1  ZINC000347662449   -0.0400
     14 N14       -10.5241   -0.4320   59.0090 N.pl3   1  ZINC000347662449   -0.4000
     15 C15       -10.2236   -0.3213   60.3738 C.ar    1  ZINC000347662449    0.1100
     16 C16        -9.3882   -1.2497   60.9795 C.ar    1  ZINC000347662449   -0.1100
     17 C17        -9.0940   -1.1380   62.3247 C.ar    1  ZINC000347662449   -0.1000
     18 C18        -9.6309   -0.1029   63.0675 C.ar    1  ZINC000347662449   -0.0800
     19 C19        -9.3075    0.0163   64.5346 C.3     1  ZINC000347662449   -0.1200
     20 C20       -10.4636    0.8235   62.4668 C.ar    1  ZINC000347662449   -0.0700
     21 C21       -11.0466    1.9504   63.2800 C.3     1  ZINC000347662449   -0.1200
     22 C22       -10.7567    0.7205   61.1212 C.ar    1  ZINC000347662449   -0.1100
     23 C23       -13.3931   -4.1764   57.4581 C.2     1  ZINC000347662449    0.5300
     24 O24       -12.2931   -4.6019   57.1753 O.2     1  ZINC000347662449   -0.4900
     25 H25       -15.8693   -8.0404   55.3663 H       1  ZINC000347662449    0.1000
     26 H26       -15.7131   -7.1906   53.7071 H       1  ZINC000347662449    0.1000
     27 H27       -14.5431   -5.3825   54.7432 H       1  ZINC000347662449    0.1100
     28 H28       -15.4480   -6.7530   57.3263 H       1  ZINC000347662449    0.0900
     29 H29       -13.6940   -6.7565   57.0238 H       1  ZINC000347662449    0.0900
     30 H30       -16.2222   -3.6678   56.8762 H       1  ZINC000347662449    0.0800
     31 H31       -16.3679   -4.6579   58.3590 H       1  ZINC000347662449    0.0900
     32 H32       -15.6607   -1.9755   58.4107 H       1  ZINC000347662449    0.1100
     33 H33       -15.0833   -3.1505   59.6392 H       1  ZINC000347662449    0.0900
     34 H34       -10.2847    0.2136   55.8474 H       1  ZINC000347662449    0.1800
     35 H35        -9.1532    1.0100   58.0705 H       1  ZINC000347662449    0.1800
     36 H36        -8.9688   -2.0587   60.3999 H       1  ZINC000347662449    0.1300
     37 H37        -8.4443   -1.8603   62.7966 H       1  ZINC000347662449    0.1300
     38 H38        -8.4157    0.6301   64.6614 H       1  ZINC000347662449    0.0800
     39 H39       -10.1453    0.4810   65.0546 H       1  ZINC000347662449    0.0700
     40 H40        -9.1278   -0.9757   64.9489 H       1  ZINC000347662449    0.0700
     41 H41       -10.3731    2.8069   63.2496 H       1  ZINC000347662449    0.0800
     42 H42       -12.0143    2.2342   62.8663 H       1  ZINC000347662449    0.0700
     43 H43       -11.1743    1.6251   64.3125 H       1  ZINC000347662449    0.0800
     44 H44       -11.4068    1.4444   60.6526 H       1  ZINC000347662449    0.1300
@<TRIPOS>BOND
     1     1     2    2
     2     1    25    1
     3     1    26    1
     4     2     3    1
     5     2    27    1
     6     3     4    1
     7     3    28    1
     8     3    29    1
     9     4    23   am
    10     4     5    1
    11     5     6    1
    12     5    30    1
    13     5    31    1
    14     6     7    1
    15     6    32    1
    16     6    33    1
    17     7     8    1
    18     7     9    1
    19     7    23    1
    20     9    10    1
    21    10    14    1
    22    10    11    2
    23    11    12    1
    24    12    13    2
    25    12    34    1
    26    13    14    1
    27    13    35    1
    28    14    15    1
    29    15    22   ar
    30    15    16   ar
    31    16    17   ar
    32    16    36    1
    33    17    18   ar
    34    17    37    1
    35    18    19    1
    36    18    20   ar
    37    19    38    1
    38    19    39    1
    39    19    40    1
    40    20    21    1
    41    20    22   ar
    42    21    41    1
    43    21    42    1
    44    21    43    1
    45    22    44    1
    46    23    24    2
@<TRIPOS>SUBSTRUCTURE
     1 ZINC000347662449        1 TEMP              0 ****  ****    0 ROOT


##########                                Name:    ZINC000192150625
##########                DOCK_Rotatable_Bonds:                   5
##########                         Heavy_Atoms:                  28
##########                    Molecular_Weight:             377.443
##########                DOCK_Rotatable_Bonds:                   5
##########                       Formal_Charge:           0.0199997
##########                     HBond_Acceptors:                   6
##########                        HBond_Donors:                   1
##########                         Heavy_Atoms:                  28
##########                          Grid_Score:          -28.098289
##########                     Grid_vdw_energy:          -26.367132
##########                      Grid_es_energy:           -1.731157
##########           Internal_energy_repulsive:           17.885086

@<TRIPOS>MOLECULE
ZINC000192150625
 51 54 1 0 0
SMALL
USER_CHARGES


@<TRIPOS>ATOM
      1 C1        -11.5854    3.9867   48.2349 C.3     1  ZINC000192150625   -0.0800
      2 C2        -11.0737    3.2372   49.4381 C.2     1  ZINC000192150625    0.0400
      3 C3        -11.6660    2.1663   49.9834 C.2     1  ZINC000192150625   -0.1800
      4 C4        -12.9371    1.5017   49.5213 C.3     1  ZINC000192150625   -0.0800
      5 C5        -10.8276    1.7701   51.1216 C.ar    1  ZINC000192150625   -0.1000
      6 C6        -10.8970    0.7556   52.0742 C.ar    1  ZINC000192150625   -0.0700
      7 C7         -9.9121    0.6600   53.0423 C.ar    1  ZINC000192150625    0.1200
      8 N8         -9.9732   -0.3554   54.0026 N.am    1  ZINC000192150625   -0.6400
      9 C9        -10.9600   -0.3562   54.9205 C.2     1  ZINC000192150625    0.5100
     10 O10       -11.7958    0.5240   54.9140 O.2     1  ZINC000192150625   -0.4900
     11 C11       -11.0252   -1.4402   55.9458 C.2     1  ZINC000192150625    0.5100
     12 O12       -11.7143   -2.4199   55.7500 O.2     1  ZINC000192150625   -0.5200
     13 N13       -10.3188   -1.3306   57.0883 N.am    1  ZINC000192150625   -0.5800
     14 C14        -9.4849   -0.1478   57.3422 C.3     1  ZINC000192150625    0.0500
     15 C15        -9.8768    0.4502   58.6970 C.3     1  ZINC000192150625   -0.1200
     16 C16        -9.7786   -0.6314   59.7753 C.3     1  ZINC000192150625   -0.0500
     17 C17       -10.1307   -0.0381   61.1151 C.ar    1  ZINC000192150625   -0.0300
     18 C18       -10.2756    1.3322   61.2685 C.ar    1  ZINC000192150625   -0.1700
     19 C19       -10.5992    1.8402   62.5125 C.ar    1  ZINC000192150625    0.1000
     20 N20       -10.7690    1.0380   63.5452 N.ar    1  ZINC000192150625   -0.4900
     21 C21       -10.6392   -0.2698   63.4362 C.ar    1  ZINC000192150625    0.1000
     22 C22       -10.3231   -0.8500   62.2224 C.ar    1  ZINC000192150625   -0.1700
     23 C23       -10.7500   -1.7682   59.4498 C.3     1  ZINC000192150625   -0.1200
     24 C24       -10.3727   -2.3886   58.1063 C.3     1  ZINC000192150625    0.1100
     25 C25        -8.8598    1.5732   53.0616 C.ar    1  ZINC000192150625   -0.1100
     26 C26        -8.7857    2.5782   52.1227 C.ar    1  ZINC000192150625   -0.0800
     27 C27        -9.7652    2.6895   51.1437 C.ar    1  ZINC000192150625    0.0500
     28 O28        -9.9537    3.5430   50.1158 O.3     1  ZINC000192150625   -0.1900
     29 H29       -10.9085    4.8094   48.0043 H       1  ZINC000192150625    0.0800
     30 H30       -11.6395    3.3106   47.3817 H       1  ZINC000192150625    0.0900
     31 H31       -12.5784    4.3822   48.4485 H       1  ZINC000192150625    0.0900
     32 H32       -12.6978    0.7262   48.7935 H       1  ZINC000192150625    0.0700
     33 H33       -13.4446    1.0541   50.3757 H       1  ZINC000192150625    0.0700
     34 H34       -13.5884    2.2443   49.0601 H       1  ZINC000192150625    0.0700
     35 H35       -11.7137    0.0491   52.0576 H       1  ZINC000192150625    0.1400
     36 H36        -9.3054   -1.0588   54.0078 H       1  ZINC000192150625    0.4300
     37 H37        -8.4345   -0.4386   57.3613 H       1  ZINC000192150625    0.0700
     38 H38        -9.6477    0.5897   56.5564 H       1  ZINC000192150625    0.1600
     39 H39        -9.2018    1.2704   58.9417 H       1  ZINC000192150625    0.0800
     40 H40       -10.9000    0.8230   58.6478 H       1  ZINC000192150625    0.0700
     41 H41        -8.7612   -1.0212   59.8068 H       1  ZINC000192150625    0.0900
     42 H42       -10.1371    1.9944   60.4266 H       1  ZINC000192150625    0.1300
     43 H43       -10.7138    2.9064   62.6402 H       1  ZINC000192150625    0.1600
     44 H44       -10.7856   -0.8948   64.3046 H       1  ZINC000192150625    0.1600
     45 H45       -10.2185   -1.9218   62.1394 H       1  ZINC000192150625    0.1300
     46 H46       -10.6964   -2.5272   60.2304 H       1  ZINC000192150625    0.0800
     47 H47       -11.7650   -1.3746   59.3936 H       1  ZINC000192150625    0.0700
     48 H48       -11.1192   -3.1312   57.8242 H       1  ZINC000192150625    0.1000
     49 H49        -9.3943   -2.8625   58.1845 H       1  ZINC000192150625    0.0800
     50 H50        -8.0954    1.4925   53.8203 H       1  ZINC000192150625    0.1400
     51 H51        -7.9655    3.2804   52.1474 H       1  ZINC000192150625    0.1400
@<TRIPOS>BOND
     1     1     2    1
     2     1    29    1
     3     1    30    1
     4     1    31    1
     5     2    28    1
     6     2     3    2
     7     3     4    1
     8     3     5    1
     9     4    32    1
    10     4    33    1
    11     4    34    1
    12     5    27   ar
    13     5     6   ar
    14     6     7   ar
    15     6    35    1
    16     7     8    1
    17     7    25   ar
    18     8     9   am
    19     8    36    1
    20     9    10    2
    21     9    11    1
    22    11    12    2
    23    11    13   am
    24    13    24    1
    25    13    14    1
    26    14    15    1
    27    14    37    1
    28    14    38    1
    29    15    16    1
    30    15    39    1
    31    15    40    1
    32    16    17    1
    33    16    23    1
    34    16    41    1
    35    17    22   ar
    36    17    18   ar
    37    18    19   ar
    38    18    42    1
    39    19    20   ar
    40    19    43    1
    41    20    21   ar
    42    21    22   ar
    43    21    44    1
    44    22    45    1
    45    23    24    1
    46    23    46    1
    47    23    47    1
    48    24    48    1
    49    24    49    1
    50    25    26   ar
    51    25    50    1
    52    26    27   ar
    53    26    51    1
    54    27    28    1
@<TRIPOS>SUBSTRUCTURE
     1 ZINC000192150625        1 TEMP              0 ****  ****    0 ROOT


##########                                Name:    ZINC000285228948
##########                DOCK_Rotatable_Bonds:                   8
##########                         Heavy_Atoms:                  23
##########                    Molecular_Weight:             339.822
##########                DOCK_Rotatable_Bonds:                   8
##########                       Formal_Charge:           0.0299997
##########                     HBond_Acceptors:                   7
##########                        HBond_Donors:                   3
##########                         Heavy_Atoms:                  23
##########                          Grid_Score:          -28.096743
##########                     Grid_vdw_energy:          -24.834026
##########                      Grid_es_energy:           -3.262716
##########           Internal_energy_repulsive:           25.272083

@<TRIPOS>MOLECULE
ZINC000285228948
 45 46 1 0 0
SMALL
USER_CHARGES


@<TRIPOS>ATOM
      1 C1        -17.0093   -2.8523   57.1267 C.3     1  <0>        -0.1600
      2 C2        -15.9819   -3.0478   58.2436 C.3     1  <0>         0.1800
      3 H3        -15.9243   -4.1049   58.5033 H       1  <0>         0.1100
      4 C4        -16.4001   -2.2550   59.4550 C.ar    1  <0>        -0.0900
      5 C5        -16.1993   -2.7711   60.7217 C.ar    1  <0>        -0.1000
      6 C6        -16.5826   -2.0445   61.8331 C.ar    1  <0>        -0.1100
      7 C7        -17.1675   -0.8004   61.6779 C.ar    1  <0>        -0.0300
      8 Cl8       -17.6488    0.1132   63.0734 Cl      1  <0>        -0.0700
      9 C9        -17.3683   -0.2843   60.4099 C.ar    1  <0>        -0.1100
     10 C10       -16.9793   -1.0095   59.2994 C.ar    1  <0>        -0.0900
     11 N11       -14.6694   -2.5849   57.7862 N.am    1  <0>        -0.6100
     12 C12       -14.4071   -1.1506   57.6442 C.3     1  <0>         0.0600
     13 C13       -13.7032   -3.4787   57.4961 C.2     1  <0>         0.5200
     14 O14       -13.9199   -4.6661   57.6151 O.2     1  <0>        -0.5200
     15 C15       -12.3536   -3.0028   57.0239 C.3     1  <0>         0.0300
     16 N16       -11.6936   -2.2541   58.1018 N.3     1  <0>        -0.4900
     17 C17       -10.5200   -1.5033   57.5871 C.3     1  <0>         0.0400
     18 C18        -9.6815   -1.2382   58.8627 C.3     1  <0>        -0.1400
     19 C19        -9.8665   -2.5405   59.6749 C.3     1  <0>         0.1100
     20 O20        -8.7618   -3.4210   59.4587 O.3     1  <0>        -0.5400
     21 C21       -10.0047   -2.2268   61.1423 C.2     1  <0>         0.5000
     22 N22        -9.0724   -1.4760   61.7617 N.am    1  <0>        -0.8500
     23 O23       -10.9550   -2.6498   61.7660 O.2     1  <0>        -0.5200
     24 C24       -11.1647   -3.1696   59.1361 C.3     1  <0>         0.0600
     25 H25       -17.9858   -3.1967   57.4670 H       1  <0>         0.0700
     26 H26       -17.0670   -1.7953   56.8670 H       1  <0>         0.0600
     27 H27       -16.7069   -3.4258   56.2505 H       1  <0>         0.0700
     28 H28       -15.7430   -3.7425   60.8427 H       1  <0>         0.1400
     29 H29       -16.4259   -2.4479   62.8226 H       1  <0>         0.1300
     30 H30       -17.8251    0.6866   60.2881 H       1  <0>         0.1400
     31 H31       -17.1358   -0.6066   58.3096 H       1  <0>         0.1300
     32 H32       -14.0556   -0.7497   58.5949 H       1  <0>         0.0600
     33 H33       -13.6455   -0.9945   56.8801 H       1  <0>         0.0800
     34 H34       -15.3249   -0.6406   57.3518 H       1  <0>         0.0800
     35 H35       -11.7408   -3.8617   56.7501 H       1  <0>         0.1100
     36 H36       -12.4798   -2.3552   56.1562 H       1  <0>         0.0700
     37 H37        -9.9577   -2.1085   56.8761 H       1  <0>         0.0400
     38 H38       -10.8339   -0.5643   57.1310 H       1  <0>         0.1200
     39 H39        -8.6320   -1.0869   58.6101 H       1  <0>         0.0900
     40 H40       -10.0744   -0.3823   59.4116 H       1  <0>         0.0900
     41 H41        -7.9046   -3.0425   59.6976 H       1  <0>         0.3800
     42 H42        -9.1607   -1.2750   62.7065 H       1  <0>         0.4000
     43 H43        -8.3129   -1.1367   61.2625 H       1  <0>         0.4100
     44 H44       -11.8890   -3.2757   59.9437 H       1  <0>         0.1100
     45 H45       -10.9505   -4.1434   58.6956 H       1  <0>         0.0700
@<TRIPOS>BOND
     1     1     2    1
     2     1    25    1
     3     1    26    1
     4     1    27    1
     5     2     3    1
     6     2     4    1
     7     2    11    1
     8     4    10   ar
     9     4     5   ar
    10     5     6   ar
    11     5    28    1
    12     6     7   ar
    13     6    29    1
    14     7     8    1
    15     7     9   ar
    16     9    10   ar
    17     9    30    1
    18    10    31    1
    19    11    12    1
    20    11    13   am
    21    12    32    1
    22    12    33    1
    23    12    34    1
    24    13    14    2
    25    13    15    1
    26    15    16    1
    27    15    35    1
    28    15    36    1
    29    16    24    1
    30    16    17    1
    31    17    18    1
    32    17    37    1
    33    17    38    1
    34    18    19    1
    35    18    39    1
    36    18    40    1
    37    19    20    1
    38    19    21    1
    39    19    24    1
    40    20    41    1
    41    21    22   am
    42    21    23    2
    43    22    42    1
    44    22    43    1
    45    24    44    1
    46    24    45    1
@<TRIPOS>SUBSTRUCTURE
     1 <0>         1 TEMP              0 ****  ****    0 ROOT


##########                                Name:    ZINC000464867530
##########                DOCK_Rotatable_Bonds:                   8
##########                         Heavy_Atoms:                  30
##########                    Molecular_Weight:              422.49
##########                DOCK_Rotatable_Bonds:                   8
##########                       Formal_Charge:         -0.00999994
##########                     HBond_Acceptors:                   7
##########                        HBond_Donors:                   0
##########                         Heavy_Atoms:                  30
##########                          Grid_Score:          -28.094532
##########                     Grid_vdw_energy:          -28.384323
##########                      Grid_es_energy:            0.289791
##########           Internal_energy_repulsive:           33.866386

@<TRIPOS>MOLECULE
ZINC000464867530
 59 62 1 0 0
SMALL
USER_CHARGES


@<TRIPOS>ATOM
      1 C1        -16.7310   -2.5993   57.6220 C.3     1  ZINC000464867530   -0.1500
      2 C2        -16.0898   -2.7914   58.9978 C.3     1  ZINC000464867530   -0.1400
      3 C3        -14.7401   -2.0716   59.0364 C.3     1  ZINC000464867530    0.0900
      4 N4        -14.1128   -2.2801   60.3438 N.am    1  ZINC000464867530   -0.6100
      5 C5        -14.9259   -2.7003   61.4877 C.3     1  ZINC000464867530    0.0700
      6 C6        -15.4714   -1.4649   62.2069 C.3     1  ZINC000464867530    0.4300
      7 F7        -16.3055   -1.8663   63.2559 F       1  ZINC000464867530   -0.1700
      8 F8        -14.4069   -0.7150   62.7183 F       1  ZINC000464867530   -0.1800
      9 F9        -16.2007   -0.6839   61.3039 F       1  ZINC000464867530   -0.1800
     10 C10       -12.7876   -2.0855   60.4940 C.2     1  ZINC000464867530    0.5300
     11 O11       -12.2683   -2.2583   61.5764 O.2     1  ZINC000464867530   -0.5100
     12 C12       -11.9512   -1.6535   59.3173 C.3     1  ZINC000464867530   -0.1200
     13 H13       -12.5949   -1.2134   58.5555 H       1  ZINC000464867530    0.1000
     14 C14       -11.2253   -2.8675   58.7333 C.3     1  ZINC000464867530   -0.1200
     15 C15       -10.4013   -2.4355   57.5182 C.3     1  ZINC000464867530   -0.1300
     16 C16        -9.3518   -1.4092   57.9565 C.3     1  ZINC000464867530    0.1000
     17 N17       -10.0303   -0.3052   58.6490 N.am    1  ZINC000464867530   -0.6100
     18 C18        -9.8409    0.9705   58.2576 C.2     1  ZINC000464867530    0.5500
     19 O19       -10.4056    1.8731   58.8383 O.2     1  ZINC000464867530   -0.5300
     20 C20        -8.9273    1.2753   57.0985 C.3     1  ZINC000464867530   -0.1700
     21 H21        -7.9626    0.7681   57.1140 H       1  ZINC000464867530    0.1300
     22 C22        -8.9734    2.6901   56.5145 C.3     1  ZINC000464867530   -0.1300
     23 C23        -9.5720    1.5208   55.7395 C.3     1  ZINC000464867530   -0.0600
     24 C24       -11.0917    1.3888   55.5447 C.3     1  ZINC000464867530   -0.0900
     25 C25       -11.1907    0.2441   54.5121 C.3     1  ZINC000464867530   -0.0800
     26 C26        -9.8803    0.2777   53.7542 C.ar    1  ZINC000464867530   -0.0900
     27 C27        -9.5315   -0.2897   52.5408 C.ar    1  ZINC000464867530   -0.1100
     28 C28        -8.2559   -0.1257   52.0365 C.ar    1  ZINC000464867530   -0.1100
     29 C29        -7.3234    0.6075   52.7456 C.ar    1  ZINC000464867530   -0.1200
     30 C30        -7.6689    1.1751   53.9567 C.ar    1  ZINC000464867530   -0.1000
     31 C31        -8.9467    1.0128   54.4645 C.ar    1  ZINC000464867530   -0.0700
     32 C32       -10.9198   -0.6177   59.7758 C.3     1  ZINC000464867530    0.1300
     33 H33       -16.8809   -1.5358   57.4362 H       1  ZINC000464867530    0.0600
     34 H34       -16.0764   -3.0134   56.8551 H       1  ZINC000464867530    0.0600
     35 H35       -17.6925   -3.1121   57.5945 H       1  ZINC000464867530    0.0600
     36 H36       -16.7443   -2.3773   59.7647 H       1  ZINC000464867530    0.0700
     37 H37       -15.9398   -3.8549   59.1835 H       1  ZINC000464867530    0.0700
     38 H38       -14.0932   -2.4706   58.2551 H       1  ZINC000464867530    0.0900
     39 H39       -14.8924   -1.0049   58.8724 H       1  ZINC000464867530    0.0900
     40 H40       -15.7565   -3.3132   61.1375 H       1  ZINC000464867530    0.1300
     41 H41       -14.3117   -3.2801   62.1767 H       1  ZINC000464867530    0.1200
     42 H42       -10.5636   -3.2927   59.4881 H       1  ZINC000464867530    0.0800
     43 H43       -11.9566   -3.6161   58.4287 H       1  ZINC000464867530    0.0800
     44 H44        -9.9031   -3.3047   57.0888 H       1  ZINC000464867530    0.0900
     45 H45       -11.0590   -1.9877   56.7732 H       1  ZINC000464867530    0.0700
     46 H46        -8.6390   -1.8815   58.6325 H       1  ZINC000464867530    0.0700
     47 H47        -8.8286   -1.0248   57.0810 H       1  ZINC000464867530    0.0900
     48 H48        -9.6644    3.4001   56.9689 H       1  ZINC000464867530    0.1100
     49 H49        -8.0392    3.1131   56.1452 H       1  ZINC000464867530    0.1100
     50 H50       -11.5801    1.1119   56.4790 H       1  ZINC000464867530    0.0700
     51 H51       -11.5131    2.3107   55.1437 H       1  ZINC000464867530    0.0800
     52 H52       -11.3095   -0.7133   55.0193 H       1  ZINC000464867530    0.0800
     53 H53       -12.0249    0.4190   53.8327 H       1  ZINC000464867530    0.0800
     54 H54       -10.2595   -0.8632   51.9862 H       1  ZINC000464867530    0.1200
     55 H55        -7.9876   -0.5702   51.0894 H       1  ZINC000464867530    0.1300
     56 H56        -6.3254    0.7365   52.3535 H       1  ZINC000464867530    0.1300
     57 H57        -6.9390    1.7474   54.5100 H       1  ZINC000464867530    0.1200
     58 H58       -11.4306    0.2888   60.1005 H       1  ZINC000464867530    0.1000
     59 H59       -10.3354   -1.0256   60.6006 H       1  ZINC000464867530    0.0800
@<TRIPOS>BOND
     1     1     2    1
     2     1    33    1
     3     1    34    1
     4     1    35    1
     5     2     3    1
     6     2    36    1
     7     2    37    1
     8     3     4    1
     9     3    38    1
    10     3    39    1
    11     4     5    1
    12     4    10   am
    13     5     6    1
    14     5    40    1
    15     5    41    1
    16     6     7    1
    17     6     8    1
    18     6     9    1
    19    10    11    2
    20    10    12    1
    21    12    13    1
    22    12    32    1
    23    12    14    1
    24    14    15    1
    25    14    42    1
    26    14    43    1
    27    15    16    1
    28    15    44    1
    29    15    45    1
    30    16    17    1
    31    16    46    1
    32    16    47    1
    33    17    18   am
    34    17    32    1
    35    18    19    2
    36    18    20    1
    37    20    21    1
    38    20    23    1
    39    20    22    1
    40    22    23    1
    41    22    48    1
    42    22    49    1
    43    23    31    1
    44    23    24    1
    45    24    25    1
    46    24    50    1
    47    24    51    1
    48    25    26    1
    49    25    52    1
    50    25    53    1
    51    26    31   ar
    52    26    27   ar
    53    27    28   ar
    54    27    54    1
    55    28    29   ar
    56    28    55    1
    57    29    30   ar
    58    29    56    1
    59    30    31   ar
    60    30    57    1
    61    32    58    1
    62    32    59    1
@<TRIPOS>SUBSTRUCTURE
     1 ZINC000464867530        1 TEMP              0 ****  ****    0 ROOT


##########                                Name:    ZINC000012087388
##########                DOCK_Rotatable_Bonds:                   5
##########                         Heavy_Atoms:                  29
##########                    Molecular_Weight:              418.52
##########                DOCK_Rotatable_Bonds:                   5
##########                       Formal_Charge:          -0.0499999
##########                     HBond_Acceptors:                  10
##########                        HBond_Donors:                   1
##########                         Heavy_Atoms:                  29
##########                          Grid_Score:          -28.073954
##########                     Grid_vdw_energy:          -28.241234
##########                      Grid_es_energy:            0.167281
##########           Internal_energy_repulsive:           30.545174

@<TRIPOS>MOLECULE
ZINC000012087388
 55 58 1 0 0
SMALL
USER_CHARGES


@<TRIPOS>ATOM
      1 C1        -10.5268    0.8842   64.8618 C.3     1  <0>        -0.6600
      2 S2        -11.7551    1.9552   64.0651 S.o2    1  <0>         2.5100
      3 O3        -12.4132    2.7635   65.0308 O.2     1  <0>        -0.9400
      4 O4        -11.2254    2.5213   62.8742 O.2     1  <0>        -0.9300
      5 C5        -13.0043    0.8477   63.5014 C.ar    1  <0>        -0.8400
      6 C6        -14.2521    0.8223   64.1037 C.ar    1  <0>         0.3000
      7 N7        -15.1677   -0.0210   63.6559 N.ar    1  <0>        -0.5800
      8 C8        -14.9025   -0.8343   62.6444 C.ar    1  <0>         0.6000
      9 N9        -15.8839   -1.7039   62.2014 N.pl3   1  <0>        -0.5700
     10 C10       -17.3024   -1.3261   62.2631 C.3     1  <0>         0.1200
     11 C11       -17.9198   -1.4989   60.8719 C.3     1  <0>        -0.1400
     12 C12       -17.6705   -2.9270   60.3814 C.3     1  <0>        -0.1200
     13 C13       -16.1642   -3.1763   60.2758 C.3     1  <0>        -0.1400
     14 C14       -15.5266   -3.0201   61.6548 C.3     1  <0>         0.1200
     15 N15       -13.7200   -0.8348   62.0464 N.ar    1  <0>        -0.5700
     16 C16       -12.7620   -0.0131   62.4420 C.ar    1  <0>         0.3200
     17 C17       -11.4201   -0.0200   61.7565 C.3     1  <0>        -0.0700
     18 C18       -10.9745   -1.4653   61.5226 C.3     1  <0>        -0.1300
     19 C19        -9.5947   -1.4687   60.8570 C.3     1  <0>         0.0900
     20 N20        -9.6558   -0.6513   59.6377 N.am    1  <0>        -0.6100
     21 C21        -9.2606   -1.1559   58.4522 C.2     1  <0>         0.5900
     22 O22        -8.8482   -2.2982   58.3845 O.2     1  <0>        -0.5100
     23 C23        -9.3277   -0.3248   57.2396 C.2     1  <0>        -0.0400
     24 C24        -8.3777    0.5802   56.7992 C.2     1  <0>        -0.1500
     25 C25        -8.8943    1.1124   55.6156 C.2     1  <0>         0.0000
     26 N26       -10.0559    0.5510   55.3966 N.2     1  <0>        -0.2700
     27 N27       -10.3375   -0.2962   56.3201 N.pl3   1  <0>        -0.3900
     28 C28       -10.1564    0.7267   59.7353 C.3     1  <0>         0.1100
     29 C29       -11.5298    0.7054   60.4134 C.3     1  <0>        -0.1200
     30 H30       -10.9946    0.3452   65.6857 H       1  <0>         0.1400
     31 H31       -10.1399    0.1709   64.1340 H       1  <0>         0.1300
     32 H32        -9.7076    1.4931   65.2446 H       1  <0>         0.1400
     33 H33       -14.4742    1.4827   64.9289 H       1  <0>         0.1900
     34 H34       -17.8208   -1.9681   62.9753 H       1  <0>         0.0700
     35 H35       -17.3900   -0.2854   62.5751 H       1  <0>         0.1000
     36 H36       -18.9927   -1.3144   60.9245 H       1  <0>         0.0800
     37 H37       -17.4619   -0.7916   60.1803 H       1  <0>         0.0700
     38 H38       -18.1072   -3.6345   61.0863 H       1  <0>         0.0700
     39 H39       -18.1301   -3.0600   59.4020 H       1  <0>         0.0700
     40 H40       -15.9877   -4.1857   59.9042 H       1  <0>         0.0800
     41 H41       -15.7230   -2.4532   59.5898 H       1  <0>         0.0700
     42 H42       -14.4429   -3.0990   61.5672 H       1  <0>         0.1000
     43 H43       -15.8992   -3.7990   62.3200 H       1  <0>         0.0700
     44 H44       -10.6886    0.4881   62.3849 H       1  <0>         0.1000
     45 H45       -10.9190   -1.9880   62.4775 H       1  <0>         0.0800
     46 H46       -11.6926   -1.9669   60.8739 H       1  <0>         0.0900
     47 H47        -8.8577   -1.0490   61.5418 H       1  <0>         0.0800
     48 H48        -9.3162   -2.4903   60.5985 H       1  <0>         0.0900
     49 H49        -7.4369    0.8233   57.2705 H       1  <0>         0.1700
     50 H50        -8.4196    1.8556   54.9921 H       1  <0>         0.1900
     51 H51       -11.1468   -0.8292   56.3619 H       1  <0>         0.4400
     52 H52        -9.4652    1.3254   60.3285 H       1  <0>         0.0800
     53 H53       -10.2485    1.1536   58.7366 H       1  <0>         0.1000
     54 H54       -12.2427    0.1834   59.7752 H       1  <0>         0.0800
     55 H55       -11.8697    1.7278   60.5789 H       1  <0>         0.0900
@<TRIPOS>BOND
     1     1     2    1
     2     1    30    1
     3     1    31    1
     4     1    32    1
     5     2     3    2
     6     2     4    2
     7     2     5    1
     8     5    16   ar
     9     5     6   ar
    10     6     7   ar
    11     6    33    1
    12     7     8   ar
    13     8     9    1
    14     8    15   ar
    15     9    14    1
    16     9    10    1
    17    10    11    1
    18    10    34    1
    19    10    35    1
    20    11    12    1
    21    11    36    1
    22    11    37    1
    23    12    13    1
    24    12    38    1
    25    12    39    1
    26    13    14    1
    27    13    40    1
    28    13    41    1
    29    14    42    1
    30    14    43    1
    31    15    16   ar
    32    16    17    1
    33    17    29    1
    34    17    18    1
    35    17    44    1
    36    18    19    1
    37    18    45    1
    38    18    46    1
    39    19    20    1
    40    19    47    1
    41    19    48    1
    42    20    21   am
    43    20    28    1
    44    21    22    2
    45    21    23    1
    46    23    27    1
    47    23    24    2
    48    24    25    1
    49    24    49    1
    50    25    26    2
    51    25    50    1
    52    26    27    1
    53    27    51    1
    54    28    29    1
    55    28    52    1
    56    28    53    1
    57    29    54    1
    58    29    55    1
@<TRIPOS>SUBSTRUCTURE
     1 <0>         1 TEMP              0 ****  ****    0 ROOT


##########                                Name:    ZINC000266467123
##########                DOCK_Rotatable_Bonds:                   9
##########                         Heavy_Atoms:                  25
##########                    Molecular_Weight:             337.421
##########                DOCK_Rotatable_Bonds:                   9
##########                       Formal_Charge:                0.02
##########                     HBond_Acceptors:                   5
##########                        HBond_Donors:                   3
##########                         Heavy_Atoms:                  25
##########                          Grid_Score:          -28.045586
##########                     Grid_vdw_energy:          -26.458862
##########                      Grid_es_energy:           -1.586724
##########           Internal_energy_repulsive:           12.245114

@<TRIPOS>MOLECULE
ZINC000266467123
 48 50 1 0 0
SMALL
USER_CHARGES


@<TRIPOS>ATOM
      1 C1         -8.9657   -2.8024   59.2801 C.3     1  <0>        -0.1600
      2 C2        -10.4667   -2.9087   59.5568 C.3     1  <0>         0.1500
      3 H3        -10.7642   -3.9572   59.5491 H       1  <0>         0.1200
      4 N4        -11.2067   -2.1835   58.5211 N.am    1  <0>        -0.7300
      5 C5        -12.1974   -2.7983   57.8451 C.2     1  <0>         0.7100
      6 O6        -12.4779   -3.9545   58.0958 O.2     1  <0>        -0.5900
      7 N7        -12.8771   -2.1316   56.8912 N.am    1  <0>        -0.7100
      8 C8        -13.9550   -2.7995   56.1576 C.3     1  <0>         0.1100
      9 H9        -13.7588   -3.8326   55.8707 H       1  <0>         0.1400
     10 C10       -14.7921   -1.9476   55.2012 C.3     1  <0>        -0.1900
     11 C11       -15.3937   -2.4293   56.5238 C.3     1  <0>        -0.1500
     12 H12       -16.1440   -3.2186   56.4776 H       1  <0>         0.1200
     13 C13       -15.5971   -1.3895   57.6276 C.3     1  <0>        -0.0500
     14 C14       -15.6738   -2.0832   58.9634 C.ar    1  <0>        -0.0800
     15 C15       -16.5167   -3.1657   59.1325 C.ar    1  <0>        -0.1100
     16 C16       -16.5870   -3.8019   60.3577 C.ar    1  <0>        -0.1200
     17 C17       -15.8143   -3.3560   61.4135 C.ar    1  <0>        -0.1200
     18 C18       -14.9707   -2.2741   61.2440 C.ar    1  <0>        -0.1200
     19 C19       -14.8971   -1.6404   60.0176 C.ar    1  <0>        -0.1200
     20 C20       -10.7725   -2.3095   60.9054 C.2     1  <0>         0.5100
     21 O21       -11.6546   -2.7800   61.5921 O.2     1  <0>        -0.5100
     22 N22       -10.0657   -1.2510   61.3483 N.am    1  <0>        -0.6700
     23 C23       -10.3496   -0.6946   62.6005 C.ar    1  <0>         0.1400
     24 C24       -11.5546   -0.0379   62.8130 C.ar    1  <0>        -0.1400
     25 C25       -11.8318    0.5102   64.0501 C.ar    1  <0>        -0.1000
     26 C26       -10.9109    0.4059   65.0763 C.ar    1  <0>        -0.1300
     27 C27        -9.7099   -0.2471   64.8677 C.ar    1  <0>        -0.1000
     28 C28        -9.4294   -0.8031   63.6349 C.ar    1  <0>        -0.1200
     29 H29        -8.4151   -3.3420   60.0506 H       1  <0>         0.0700
     30 H30        -8.7445   -3.2357   58.3046 H       1  <0>         0.0800
     31 H31        -8.6682   -1.7538   59.2877 H       1  <0>         0.0700
     32 H32       -10.9838   -1.2607   58.3219 H       1  <0>         0.4100
     33 H33       -12.6525   -1.2096   56.6904 H       1  <0>         0.4000
     34 H34       -14.5407   -0.8903   55.1179 H       1  <0>         0.1000
     35 H35       -15.1468   -2.4204   54.2854 H       1  <0>         0.1000
     36 H36       -14.7597   -0.6918   57.6282 H       1  <0>         0.0800
     37 H37       -16.5238   -0.8447   57.4474 H       1  <0>         0.0700
     38 H38       -17.1204   -3.5140   58.3076 H       1  <0>         0.1200
     39 H39       -17.2461   -4.6473   60.4900 H       1  <0>         0.1200
     40 H40       -15.8697   -3.8527   62.3709 H       1  <0>         0.1200
     41 H41       -14.3672   -1.9255   62.0690 H       1  <0>         0.1200
     42 H42       -14.2381   -0.7952   59.8852 H       1  <0>         0.1200
     43 H43        -9.3602   -0.8747   60.7992 H       1  <0>         0.4100
     44 H44       -12.2740    0.0445   62.0118 H       1  <0>         0.1300
     45 H45       -12.7688    1.0211   64.2160 H       1  <0>         0.1300
     46 H46       -11.1298    0.8355   66.0427 H       1  <0>         0.1200
     47 H47        -8.9923   -0.3263   65.6709 H       1  <0>         0.1300
     48 H48        -8.4913   -1.3129   63.4726 H       1  <0>         0.1400
@<TRIPOS>BOND
     1     1     2    1
     2     1    29    1
     3     1    30    1
     4     1    31    1
     5     2     3    1
     6     2     4    1
     7     2    20    1
     8     4     5   am
     9     4    32    1
    10     5     6    2
    11     5     7   am
    12     7     8    1
    13     7    33    1
    14     8     9    1
    15     8    11    1
    16     8    10    1
    17    10    11    1
    18    10    34    1
    19    10    35    1
    20    11    12    1
    21    11    13    1
    22    13    14    1
    23    13    36    1
    24    13    37    1
    25    14    19   ar
    26    14    15   ar
    27    15    16   ar
    28    15    38    1
    29    16    17   ar
    30    16    39    1
    31    17    18   ar
    32    17    40    1
    33    18    19   ar
    34    18    41    1
    35    19    42    1
    36    20    21    2
    37    20    22   am
    38    22    23    1
    39    22    43    1
    40    23    28   ar
    41    23    24   ar
    42    24    25   ar
    43    24    44    1
    44    25    26   ar
    45    25    45    1
    46    26    27   ar
    47    26    46    1
    48    27    28   ar
    49    27    47    1
    50    28    48    1
@<TRIPOS>SUBSTRUCTURE
     1 <0>         1 TEMP              0 ****  ****    0 ROOT


##########                                Name:    ZINC000151850193
##########                DOCK_Rotatable_Bonds:                  11
##########                         Heavy_Atoms:                  23
##########                    Molecular_Weight:             328.452
##########                DOCK_Rotatable_Bonds:                  11
##########                       Formal_Charge:            0.039999
##########                     HBond_Acceptors:                   6
##########                        HBond_Donors:                   2
##########                         Heavy_Atoms:                  23
##########                          Grid_Score:          -28.045473
##########                     Grid_vdw_energy:          -26.943478
##########                      Grid_es_energy:           -1.101995
##########           Internal_energy_repulsive:           76.604492

@<TRIPOS>MOLECULE
ZINC000151850193
 55 55 1 0 0
SMALL
USER_CHARGES


@<TRIPOS>ATOM
      1 C1        -10.0694   -1.8197   62.1559 C.3     1  ZINC000151850193   -0.1500
      2 C2         -9.1797   -1.5228   60.9470 C.3     1  ZINC000151850193   -0.1000
      3 C3        -10.0566   -1.2039   59.7344 C.3     1  ZINC000151850193   -0.0800
      4 C4        -10.9539    0.0156   59.9544 C.3     1  ZINC000151850193   -0.1000
      5 C5        -10.0983    1.2060   60.3925 C.3     1  ZINC000151850193   -0.1500
      6 C6         -9.2822   -1.1697   58.4063 C.3     1  ZINC000151850193    0.1400
      7 H7         -8.2236   -0.9379   58.5238 H       1  ZINC000151850193    0.1000
      8 N8         -9.9299   -0.3616   57.3701 N.am    1  ZINC000151850193   -0.7000
      9 C9         -9.2174    0.5574   56.6886 C.2     1  ZINC000151850193    0.5200
     10 O10        -8.0405    0.7166   56.9345 O.2     1  ZINC000151850193   -0.5300
     11 C11        -9.8833    1.3874   55.6215 C.3     1  ZINC000151850193   -0.1500
     12 C12        -8.8746    2.3840   55.0470 C.3     1  ZINC000151850193    0.1500
     13 N13        -8.2280    1.8002   53.8692 N.am    1  ZINC000151850193   -0.7100
     14 C14        -7.9952    2.5614   52.7815 C.2     1  ZINC000151850193    0.6500
     15 O15        -8.3231    3.7314   52.7773 O.2     1  ZINC000151850193   -0.5600
     16 O16        -7.3995    2.0253   51.6996 O.3     1  ZINC000151850193   -0.3700
     17 C17        -6.9777    0.6395   51.7984 C.3     1  ZINC000151850193    0.1400
     18 C18        -6.2897    0.2217   50.4973 C.3     1  ZINC000151850193   -0.1800
     19 C19        -5.9992    0.4861   52.9646 C.3     1  ZINC000151850193   -0.1400
     20 C20        -8.1996   -0.2498   52.0376 C.3     1  ZINC000151850193   -0.1800
     21 C21        -9.5737   -2.6750   58.2882 C.3     1  ZINC000151850193   -0.1700
     22 C22       -10.8042   -2.4264   59.1763 C.3     1  ZINC000151850193    0.0700
     23 H23       -10.9744   -3.2091   59.9157 H       1  ZINC000151850193    0.0800
     24 O24       -11.9829   -2.0920   58.4409 O.3     1  ZINC000151850193   -0.3700
     25 C25       -12.9460   -3.1458   58.3759 C.3     1  ZINC000151850193    0.0300
     26 H26       -10.6649   -0.9383   62.3939 H       1  ZINC000151850193    0.0600
     27 H27       -10.7316   -2.6537   61.9235 H       1  ZINC000151850193    0.0600
     28 H28        -9.4455   -2.0785   63.0113 H       1  ZINC000151850193    0.0600
     29 H29        -8.5401   -0.6682   61.1678 H       1  ZINC000151850193    0.0700
     30 H30        -8.5607   -2.3931   60.7289 H       1  ZINC000151850193    0.0700
     31 H31       -11.4686    0.2604   59.0253 H       1  ZINC000151850193    0.0700
     32 H32       -11.6881   -0.2085   60.7283 H       1  ZINC000151850193    0.0700
     33 H33        -9.6412    0.9891   61.3580 H       1  ZINC000151850193    0.0500
     34 H34        -9.3177    1.3841   59.6528 H       1  ZINC000151850193    0.0500
     35 H35       -10.7263    2.0926   60.4788 H       1  ZINC000151850193    0.0500
     36 H36       -10.8714   -0.4881   57.1743 H       1  ZINC000151850193    0.4100
     37 H37       -10.2431    0.7352   54.8257 H       1  ZINC000151850193    0.1000
     38 H38       -10.7237    1.9298   56.0546 H       1  ZINC000151850193    0.1000
     39 H39        -9.3914    3.3002   54.7612 H       1  ZINC000151850193    0.0800
     40 H40        -8.1202    2.6123   55.7999 H       1  ZINC000151850193    0.0800
     41 H41        -7.9673    0.8659   53.8721 H       1  ZINC000151850193    0.4100
     42 H42        -5.4192    0.8553   50.3269 H       1  ZINC000151850193    0.0600
     43 H43        -5.9730   -0.8186   50.5715 H       1  ZINC000151850193    0.0700
     44 H44        -6.9868    0.3310   49.6664 H       1  ZINC000151850193    0.0900
     45 H45        -6.4893    0.7838   53.8917 H       1  ZINC000151850193    0.0700
     46 H46        -5.6825   -0.5541   53.0389 H       1  ZINC000151850193    0.0800
     47 H47        -5.1288    1.1197   52.7943 H       1  ZINC000151850193    0.0700
     48 H48        -8.8966   -0.1405   51.2068 H       1  ZINC000151850193    0.0900
     49 H49        -7.8828   -1.2901   52.1118 H       1  ZINC000151850193    0.0700
     50 H50        -8.6897    0.0478   52.9646 H       1  ZINC000151850193    0.0600
     51 H51        -9.8230   -2.9934   57.2760 H       1  ZINC000151850193    0.0800
     52 H52        -8.8170   -3.3043   58.7567 H       1  ZINC000151850193    0.1000
     53 H53       -12.5009   -4.0154   57.8924 H       1  ZINC000151850193    0.0400
     54 H54       -13.2611   -3.4127   59.3847 H       1  ZINC000151850193    0.0400
     55 H55       -13.8103   -2.8131   57.8013 H       1  ZINC000151850193    0.0900
@<TRIPOS>BOND
     1     1     2    1
     2     1    26    1
     3     1    27    1
     4     1    28    1
     5     2     3    1
     6     2    29    1
     7     2    30    1
     8     3    22    1
     9     3     4    1
    10     3     6    1
    11     4     5    1
    12     4    31    1
    13     4    32    1
    14     5    33    1
    15     5    34    1
    16     5    35    1
    17     6     7    1
    18     6     8    1
    19     6    21    1
    20     8     9   am
    21     8    36    1
    22     9    10    2
    23     9    11    1
    24    11    12    1
    25    11    37    1
    26    11    38    1
    27    12    13    1
    28    12    39    1
    29    12    40    1
    30    13    14   am
    31    13    41    1
    32    14    15    2
    33    14    16    1
    34    16    17    1
    35    17    18    1
    36    17    19    1
    37    17    20    1
    38    18    42    1
    39    18    43    1
    40    18    44    1
    41    19    45    1
    42    19    46    1
    43    19    47    1
    44    20    48    1
    45    20    49    1
    46    20    50    1
    47    21    22    1
    48    21    51    1
    49    21    52    1
    50    22    23    1
    51    22    24    1
    52    24    25    1
    53    25    53    1
    54    25    54    1
    55    25    55    1
@<TRIPOS>SUBSTRUCTURE
     1 ZINC000151850193        1 TEMP              0 ****  ****    0 ROOT


##########                                Name:    ZINC000851838607
##########                DOCK_Rotatable_Bonds:                  12
##########                         Heavy_Atoms:                  23
##########                    Molecular_Weight:             352.495
##########                DOCK_Rotatable_Bonds:                  12
##########                       Formal_Charge:          0.00999896
##########                     HBond_Acceptors:                   8
##########                        HBond_Donors:                   2
##########                         Heavy_Atoms:                  23
##########                          Grid_Score:          -28.044416
##########                     Grid_vdw_energy:          -27.507193
##########                      Grid_es_energy:           -0.537224
##########           Internal_energy_repulsive:           24.222393

@<TRIPOS>MOLECULE
ZINC000851838607
 55 54 1 0 0
SMALL
USER_CHARGES


@<TRIPOS>ATOM
      1 C1         -7.0737    0.0619   52.3888 C.3     1  ZINC000851838607    0.0300
      2 O2         -8.1821   -0.2684   51.5496 O.3     1  ZINC000851838607   -0.3800
      3 C3         -9.3838   -0.5650   52.2638 C.3     1  ZINC000851838607    0.0800
      4 C4         -9.8806    0.6967   52.9725 C.3     1  ZINC000851838607   -0.6000
      5 H5         -9.0903    1.0889   53.6126 H       1  ZINC000851838607    0.1400
      6 C6        -10.2627    1.7499   51.9305 C.3     1  ZINC000851838607   -0.1400
      7 S7        -11.3317    0.2912   53.9827 S.o2    1  ZINC000851838607    2.6200
      8 O8        -11.7305    1.4146   54.7560 O.2     1  ZINC000851838607   -0.9400
      9 O9        -12.2776   -0.4481   53.2225 O.2     1  ZINC000851838607   -0.9500
     10 N10       -10.7675   -0.7938   55.0994 N.am    1  ZINC000851838607   -1.1200
     11 C11       -11.6773   -1.3524   56.1025 C.3     1  ZINC000851838607    0.1100
     12 C12       -11.3149   -2.8163   56.3608 C.3     1  ZINC000851838607   -0.1400
     13 C13       -12.2720   -3.4029   57.4004 C.3     1  ZINC000851838607    0.1700
     14 H14       -11.8892   -4.3632   57.7457 H       1  ZINC000851838607    0.1000
     15 N15       -12.3821   -2.4841   58.5362 N.am    1  ZINC000851838607   -0.7100
     16 C16       -11.6966   -2.7296   59.6704 C.2     1  ZINC000851838607    0.6500
     17 O17       -10.9862   -3.7123   59.7504 O.2     1  ZINC000851838607   -0.5600
     18 O18       -11.7989   -1.8861   60.7147 O.3     1  ZINC000851838607   -0.3700
     19 C19       -10.7316   -0.9167   60.8862 C.3     1  ZINC000851838607    0.1400
     20 C20       -10.2802   -0.4074   59.5159 C.3     1  ZINC000851838607   -0.1800
     21 C21       -11.2394    0.2578   61.7250 C.3     1  ZINC000851838607   -0.1400
     22 C22        -9.5506   -1.5790   61.5985 C.3     1  ZINC000851838607   -0.1800
     23 C23       -13.6516   -3.6009   56.7692 C.3     1  ZINC000851838607   -0.1100
     24 C24       -14.0377   -5.0796   56.8409 C.3     1  ZINC000851838607   -0.1500
     25 C25       -14.6847   -2.7665   57.5292 C.3     1  ZINC000851838607   -0.1400
     26 H26        -7.3187    0.9408   52.9852 H       1  ZINC000851838607    0.0400
     27 H27        -6.8561   -0.7767   53.0502 H       1  ZINC000851838607    0.0500
     28 H28        -6.2008    0.2737   51.7712 H       1  ZINC000851838607    0.0900
     29 H29       -10.1449   -0.9131   51.5655 H       1  ZINC000851838607    0.0700
     30 H30        -9.1853   -1.3422   53.0019 H       1  ZINC000851838607    0.0600
     31 H31       -10.7012    2.6134   52.4307 H       1  ZINC000851838607    0.0700
     32 H32        -9.3722    2.0600   51.3839 H       1  ZINC000851838607    0.0900
     33 H33       -10.9871    1.3265   51.2347 H       1  ZINC000851838607    0.0700
     34 H34        -9.8347   -1.0595   55.0892 H       1  ZINC000851838607    0.4200
     35 H35       -11.5873   -0.7867   57.0299 H       1  ZINC000851838607    0.0700
     36 H36       -12.7026   -1.2909   55.7376 H       1  ZINC000851838607    0.0800
     37 H37       -11.3975   -3.3803   55.4318 H       1  ZINC000851838607    0.0800
     38 H38       -10.2923   -2.8772   56.7332 H       1  ZINC000851838607    0.1000
     39 H39       -12.9481   -1.6991   58.4719 H       1  ZINC000851838607    0.4100
     40 H40       -11.1216    0.0646   59.0085 H       1  ZINC000851838607    0.0600
     41 H41        -9.4790    0.3203   59.6447 H       1  ZINC000851838607    0.0700
     42 H42        -9.9185   -1.2441   58.9184 H       1  ZINC000851838607    0.0900
     43 H43       -11.5610   -0.1050   62.7012 H       1  ZINC000851838607    0.0700
     44 H44       -10.4382    0.9856   61.8537 H       1  ZINC000851838607    0.0800
     45 H45       -12.0807    0.7298   61.2175 H       1  ZINC000851838607    0.0700
     46 H46        -9.1888   -2.4159   61.0010 H       1  ZINC000851838607    0.0900
     47 H47        -8.7494   -0.8513   61.7273 H       1  ZINC000851838607    0.0700
     48 H48        -9.8722   -1.9420   62.5748 H       1  ZINC000851838607    0.0600
     49 H49       -13.6233   -3.2829   55.7270 H       1  ZINC000851838607    0.0700
     50 H50       -14.0660   -5.3976   57.8831 H       1  ZINC000851838607    0.0600
     51 H51       -15.0206   -5.2207   56.3913 H       1  ZINC000851838607    0.0600
     52 H52       -13.3018   -5.6740   56.2995 H       1  ZINC000851838607    0.0600
     53 H53       -14.4096   -1.7131   57.4781 H       1  ZINC000851838607    0.0500
     54 H54       -15.6675   -2.9077   57.0795 H       1  ZINC000851838607    0.0500
     55 H55       -14.7129   -3.0846   58.5714 H       1  ZINC000851838607    0.0700
@<TRIPOS>BOND
     1     1     2    1
     2     1    26    1
     3     1    27    1
     4     1    28    1
     5     2     3    1
     6     3     4    1
     7     3    29    1
     8     3    30    1
     9     4     5    1
    10     4     6    1
    11     4     7    1
    12     6    31    1
    13     6    32    1
    14     6    33    1
    15     7     8    2
    16     7     9    2
    17     7    10   am
    18    10    11    1
    19    10    34    1
    20    11    12    1
    21    11    35    1
    22    11    36    1
    23    12    13    1
    24    12    37    1
    25    12    38    1
    26    13    14    1
    27    13    15    1
    28    13    23    1
    29    15    16   am
    30    15    39    1
    31    16    17    2
    32    16    18    1
    33    18    19    1
    34    19    20    1
    35    19    21    1
    36    19    22    1
    37    20    40    1
    38    20    41    1
    39    20    42    1
    40    21    43    1
    41    21    44    1
    42    21    45    1
    43    22    46    1
    44    22    47    1
    45    22    48    1
    46    23    24    1
    47    23    25    1
    48    23    49    1
    49    24    50    1
    50    24    51    1
    51    24    52    1
    52    25    53    1
    53    25    54    1
    54    25    55    1
@<TRIPOS>SUBSTRUCTURE
     1 ZINC000851838607        1 TEMP              0 ****  ****    0 ROOT


##########                                Name:    ZINC000876376999
##########                DOCK_Rotatable_Bonds:                   7
##########                         Heavy_Atoms:                  24
##########                    Molecular_Weight:             358.502
##########                DOCK_Rotatable_Bonds:                   7
##########                       Formal_Charge:          -0.0299994
##########                     HBond_Acceptors:                   7
##########                        HBond_Donors:                   2
##########                         Heavy_Atoms:                  24
##########                          Grid_Score:          -28.042931
##########                     Grid_vdw_energy:          -25.460835
##########                      Grid_es_energy:           -2.582097
##########           Internal_energy_repulsive:           35.120560

@<TRIPOS>MOLECULE
ZINC000876376999
 54 56 1 0 0
SMALL
USER_CHARGES


@<TRIPOS>ATOM
      1 C1        -12.6566    0.4087   53.1632 C.3     1  ZINC000876376999   -0.1500
      2 C2        -11.5268    1.2297   52.5382 C.3     1  ZINC000876376999   -0.1100
      3 C3        -10.2146    0.9271   53.2643 C.3     1  ZINC000876376999   -0.0700
      4 C4         -9.9070   -0.5681   53.1613 C.3     1  ZINC000876376999    0.0900
      5 O5         -9.8107   -0.9409   51.7853 O.3     1  ZINC000876376999   -0.5600
      6 C6         -9.0793    1.7282   52.6228 C.3     1  ZINC000876376999   -0.1100
      7 C7         -7.7605    1.4013   53.3272 C.3     1  ZINC000876376999   -0.1400
      8 C8         -7.8613    1.8019   54.8024 C.3     1  ZINC000876376999    0.1100
      9 N9         -9.0380    1.1477   55.3908 N.am    1  ZINC000876376999   -0.6300
     10 C10        -8.9226    0.4019   56.5074 C.2     1  ZINC000876376999    0.7100
     11 O11        -7.8371    0.2652   57.0378 O.2     1  ZINC000876376999   -0.5800
     12 N12       -10.0106   -0.1924   57.0362 N.am    1  ZINC000876376999   -0.7500
     13 C13        -9.8852   -1.0031   58.2500 C.3     1  ZINC000876376999    0.1400
     14 C14       -11.2622   -1.1551   58.9077 C.3     1  ZINC000876376999   -0.1100
     15 C15       -11.2822   -2.3585   59.8103 C.3     1  ZINC000876376999   -0.1100
     16 C16       -11.0883   -2.0795   61.3053 C.3     1  ZINC000876376999   -0.5200
     17 H17       -11.0815   -2.9867   61.9254 H       1  ZINC000876376999    0.1500
     18 C18        -9.8054   -1.2308   61.4583 C.3     1  ZINC000876376999   -0.1200
     19 C19       -10.0881    0.2465   61.2078 C.3     1  ZINC000876376999   -0.1200
     20 C20       -11.5786    0.4814   60.8710 C.3     1  ZINC000876376999   -0.5300
     21 H21       -11.9358    1.4771   61.1685 H       1  ZINC000876376999    0.1500
     22 C22       -11.7684    0.1807   59.3796 C.3     1  ZINC000876376999   -0.1000
     23 S23       -12.4125   -0.8892   61.7748 S.o2    1  ZINC000876376999    2.3700
     24 O24       -13.6316   -1.2316   61.1315 O.2     1  ZINC000876376999   -0.9300
     25 O25       -12.3779   -0.6452   63.1740 O.2     1  ZINC000876376999   -0.9300
     26 C26       -10.3432    1.3223   54.7388 C.3     1  ZINC000876376999    0.1400
     27 H27       -12.4689   -0.6522   52.9982 H       1  ZINC000876376999    0.0500
     28 H28       -12.7008    0.6076   54.2340 H       1  ZINC000876376999    0.0600
     29 H29       -13.6048    0.6859   52.7027 H       1  ZINC000876376999    0.0500
     30 H30       -11.4277    0.9684   51.4847 H       1  ZINC000876376999    0.0600
     31 H31       -11.7560    2.2914   52.6292 H       1  ZINC000876376999    0.0700
     32 H32        -8.9624   -0.7801   53.6621 H       1  ZINC000876376999    0.0500
     33 H33       -10.7060   -1.1370   53.6369 H       1  ZINC000876376999    0.0400
     34 H34       -10.6273   -0.8098   51.2841 H       1  ZINC000876376999    0.3800
     35 H35        -9.0018    1.4669   51.5674 H       1  ZINC000876376999    0.0700
     36 H36        -9.2877    2.7939   52.7184 H       1  ZINC000876376999    0.0700
     37 H37        -7.5640    0.3318   53.2533 H       1  ZINC000876376999    0.0700
     38 H38        -6.9489    1.9545   52.8547 H       1  ZINC000876376999    0.0800
     39 H39        -6.9630    1.4815   55.3302 H       1  ZINC000876376999    0.0700
     40 H40        -7.9674    2.8838   54.8809 H       1  ZINC000876376999    0.0700
     41 H41       -10.8766   -0.0835   56.6130 H       1  ZINC000876376999    0.3900
     42 H42        -9.4957   -1.9876   57.9908 H       1  ZINC000876376999    0.0800
     43 H43        -9.2027   -0.5137   58.9449 H       1  ZINC000876376999    0.0700
     44 H44       -11.9378   -1.4301   58.0490 H       1  ZINC000876376999    0.0900
     45 H45       -12.2400   -2.8907   59.6745 H       1  ZINC000876376999    0.0900
     46 H46       -10.5010   -3.0659   59.4815 H       1  ZINC000876376999    0.0900
     47 H47        -9.4296   -1.3440   62.4799 H       1  ZINC000876376999    0.0800
     48 H48        -9.0418   -1.5838   60.7714 H       1  ZINC000876376999    0.0900
     49 H49        -9.8411    0.8063   62.1152 H       1  ZINC000876376999    0.0800
     50 H50        -9.4622    0.6118   60.3988 H       1  ZINC000876376999    0.0900
     51 H51       -11.2751    0.9773   58.7958 H       1  ZINC000876376999    0.0900
     52 H52       -12.8433    0.2601   59.1402 H       1  ZINC000876376999    0.0900
     53 H53       -10.6516    2.3652   54.8121 H       1  ZINC000876376999    0.0600
     54 H54       -11.0824    0.6854   55.2247 H       1  ZINC000876376999    0.1000
@<TRIPOS>BOND
     1     1     2    1
     2     1    27    1
     3     1    28    1
     4     1    29    1
     5     2     3    1
     6     2    30    1
     7     2    31    1
     8     3    26    1
     9     3     4    1
    10     3     6    1
    11     4     5    1
    12     4    32    1
    13     4    33    1
    14     5    34    1
    15     6     7    1
    16     6    35    1
    17     6    36    1
    18     7     8    1
    19     7    37    1
    20     7    38    1
    21     8     9    1
    22     8    39    1
    23     8    40    1
    24     9    10   am
    25     9    26    1
    26    10    11    2
    27    10    12   am
    28    12    13    1
    29    12    41    1
    30    13    14    1
    31    13    42    1
    32    13    43    1
    33    14    22    1
    34    14    15    1
    35    14    44    1
    36    15    16    1
    37    15    45    1
    38    15    46    1
    39    16    17    1
    40    16    23    1
    41    16    18    1
    42    18    19    1
    43    18    47    1
    44    18    48    1
    45    19    20    1
    46    19    49    1
    47    19    50    1
    48    20    21    1
    49    20    22    1
    50    20    23    1
    51    22    51    1
    52    22    52    1
    53    23    24    2
    54    23    25    2
    55    26    53    1
    56    26    54    1
@<TRIPOS>SUBSTRUCTURE
     1 ZINC000876376999        1 TEMP              0 ****  ****    0 ROOT


##########                                Name:    ZINC000028372981
##########                DOCK_Rotatable_Bonds:                   7
##########                         Heavy_Atoms:                  28
##########                    Molecular_Weight:             380.443
##########                DOCK_Rotatable_Bonds:                   7
##########                       Formal_Charge:         1.78814e-07
##########                     HBond_Acceptors:                   6
##########                        HBond_Donors:                   1
##########                         Heavy_Atoms:                  28
##########                          Grid_Score:          -28.027630
##########                     Grid_vdw_energy:          -28.070084
##########                      Grid_es_energy:            0.042454
##########           Internal_energy_repulsive:          168.051987

@<TRIPOS>MOLECULE
ZINC000028372981
 52 54 1 0 0
SMALL
USER_CHARGES


@<TRIPOS>ATOM
      1 C1         -4.9059    3.4195   52.8424 C.3     1  ZINC000028372981   -0.1800
      2 C2         -4.1183    2.6419   51.8197 C.2     1  ZINC000028372981    0.5200
      3 O3         -4.4830    1.5340   51.4876 O.2     1  ZINC000028372981   -0.5100
      4 N4         -3.0085    3.1778   51.2741 N.am    1  ZINC000028372981   -0.5500
      5 C5         -2.4728    4.5033   51.5941 C.3     1  ZINC000028372981    0.1000
      6 C6         -1.2144    4.6513   50.7235 C.3     1  ZINC000028372981   -0.0900
      7 C7         -1.1328    3.3530   49.9518 C.ar    1  ZINC000028372981   -0.1500
      8 C8         -0.2155    2.9126   49.0242 C.ar    1  ZINC000028372981    0.0000
      9 C9         -0.3632    1.6519   48.4385 C.ar    1  ZINC000028372981   -0.1600
     10 C10         0.6133    1.1773   47.4407 C.2     1  ZINC000028372981    0.5200
     11 O11         1.7991    1.3857   47.6045 O.2     1  ZINC000028372981   -0.5000
     12 O12         0.1907    0.5127   46.3475 O.3     1  ZINC000028372981   -0.3200
     13 C13        -0.4686    1.2928   45.3155 C.3     1  ZINC000028372981    0.0700
     14 H14        -1.1536    2.0030   45.7788 H       1  ZINC000028372981    0.1200
     15 C15        -1.2514    0.3580   44.3913 C.3     1  ZINC000028372981   -0.1700
     16 C16         0.5651    2.0415   44.5143 C.2     1  ZINC000028372981    0.5200
     17 O17         0.2790    3.0980   43.9919 O.2     1  ZINC000028372981   -0.4900
     18 N18         1.8075    1.5371   44.3782 N.am    1  ZINC000028372981   -0.6600
     19 C19         2.7673    2.2323   43.6343 C.ar    1  ZINC000028372981    0.1500
     20 C20         2.4410    3.4414   43.0346 C.ar    1  ZINC000028372981   -0.1300
     21 C21         3.3908    4.1255   42.3012 C.ar    1  ZINC000028372981   -0.1000
     22 C22         4.6655    3.6076   42.1644 C.ar    1  ZINC000028372981   -0.1300
     23 C23         4.9939    2.4038   42.7608 C.ar    1  ZINC000028372981   -0.0700
     24 C24         6.3845    1.8434   42.6095 C.3     1  ZINC000028372981   -0.1200
     25 C25         4.0486    1.7146   43.4945 C.ar    1  ZINC000028372981   -0.1200
     26 C26         4.4068    0.4025   44.1433 C.3     1  ZINC000028372981   -0.1200
     27 C27        -1.4405    0.8421   48.8100 C.ar    1  ZINC000028372981   -0.0200
     28 C28        -2.3479    1.2875   49.7404 C.ar    1  ZINC000028372981   -0.1800
     29 C29        -2.2046    2.5512   50.3236 C.ar    1  ZINC000028372981    0.1900
     30 H30        -5.2543    4.3527   52.4000 H       1  ZINC000028372981    0.1000
     31 H31        -5.7628    2.8289   53.1667 H       1  ZINC000028372981    0.1000
     32 H32        -4.2704    3.6391   53.7003 H       1  ZINC000028372981    0.1000
     33 H33        -3.1997    5.2756   51.3422 H       1  ZINC000028372981    0.0900
     34 H34        -2.2106    4.5601   52.6505 H       1  ZINC000028372981    0.0900
     35 H35        -1.3213    5.4939   50.0403 H       1  ZINC000028372981    0.1000
     36 H36        -0.3315    4.7799   51.3497 H       1  ZINC000028372981    0.1000
     37 H37         0.6160    3.5429   48.7459 H       1  ZINC000028372981    0.1400
     38 H38        -0.5665   -0.3522   43.9280 H       1  ZINC000028372981    0.0800
     39 H39        -1.9991   -0.1836   44.9709 H       1  ZINC000028372981    0.0800
     40 H40        -1.7464    0.9436   43.6166 H       1  ZINC000028372981    0.0800
     41 H41         2.0363    0.6922   44.7961 H       1  ZINC000028372981    0.4100
     42 H42         1.4468    3.8488   43.1452 H       1  ZINC000028372981    0.1400
     43 H43         3.1377    5.0660   41.8346 H       1  ZINC000028372981    0.1300
     44 H44         5.4066    4.1446   41.5908 H       1  ZINC000028372981    0.1200
     45 H45         7.0138    2.2086   43.4211 H       1  ZINC000028372981    0.0700
     46 H46         6.3432    0.7547   42.6435 H       1  ZINC000028372981    0.0700
     47 H47         6.8025    2.1615   41.6544 H       1  ZINC000028372981    0.0700
     48 H48         4.7873    0.5858   45.1481 H       1  ZINC000028372981    0.0700
     49 H49         3.5201   -0.2288   44.2002 H       1  ZINC000028372981    0.0600
     50 H50         5.1722   -0.0987   43.5508 H       1  ZINC000028372981    0.0800
     51 H51        -1.5591   -0.1349   48.3654 H       1  ZINC000028372981    0.1500
     52 H52        -3.1785    0.6577   50.0233 H       1  ZINC000028372981    0.1500
@<TRIPOS>BOND
     1     1     2    1
     2     1    30    1
     3     1    31    1
     4     1    32    1
     5     2     3    2
     6     2     4   am
     7     4    29    1
     8     4     5    1
     9     5     6    1
    10     5    33    1
    11     5    34    1
    12     6     7    1
    13     6    35    1
    14     6    36    1
    15     7    29   ar
    16     7     8   ar
    17     8     9   ar
    18     8    37    1
    19     9    10    1
    20     9    27   ar
    21    10    11    2
    22    10    12    1
    23    12    13    1
    24    13    14    1
    25    13    15    1
    26    13    16    1
    27    15    38    1
    28    15    39    1
    29    15    40    1
    30    16    17    2
    31    16    18   am
    32    18    19    1
    33    18    41    1
    34    19    25   ar
    35    19    20   ar
    36    20    21   ar
    37    20    42    1
    38    21    22   ar
    39    21    43    1
    40    22    23   ar
    41    22    44    1
    42    23    24    1
    43    23    25   ar
    44    24    45    1
    45    24    46    1
    46    24    47    1
    47    25    26    1
    48    26    48    1
    49    26    49    1
    50    26    50    1
    51    27    28   ar
    52    27    51    1
    53    28    29   ar
    54    28    52    1
@<TRIPOS>SUBSTRUCTURE
     1 ZINC000028372981        1 TEMP              0 ****  ****    0 ROOT


##########                                Name:    ZINC000013551438
##########                DOCK_Rotatable_Bonds:                   5
##########                         Heavy_Atoms:                  27
##########                    Molecular_Weight:             377.467
##########                DOCK_Rotatable_Bonds:                   5
##########                       Formal_Charge:          -0.0300005
##########                     HBond_Acceptors:                   6
##########                        HBond_Donors:                   1
##########                         Heavy_Atoms:                  27
##########                          Grid_Score:          -27.985340
##########                     Grid_vdw_energy:          -26.892843
##########                      Grid_es_energy:           -1.092498
##########           Internal_energy_repulsive:           17.632313

@<TRIPOS>MOLECULE
ZINC000013551438
 46 49 1 0 0
SMALL
USER_CHARGES


@<TRIPOS>ATOM
      1 C1        -16.2004    0.7013   53.1221 C.3     1  <0>         0.0300
      2 O2        -16.9754   -0.3683   53.6675 O.3     1  <0>        -0.3200
      3 C3        -16.9582   -1.5493   52.9934 C.ar    1  <0>         0.1000
      4 C4        -17.4716   -1.6181   51.7014 C.ar    1  <0>        -0.1800
      5 C5        -17.4616   -2.8065   51.0055 C.ar    1  <0>        -0.0900
      6 C6        -16.9351   -3.9522   51.5929 C.ar    1  <0>         0.0700
      7 C7        -16.4158   -3.8846   52.8970 C.ar    1  <0>        -0.0400
      8 C8        -16.4260   -2.6752   53.5912 C.ar    1  <0>        -0.1100
      9 C9        -15.9466   -5.2414   53.2197 C.2     1  <0>        -0.1200
     10 C10       -15.3165   -5.6816   54.4886 C.2     1  <0>         0.1700
     11 C11       -15.6338   -6.8381   55.1004 C.2     1  <0>        -0.3000
     12 S12       -14.6591   -6.9666   56.5621 S.3     1  <0>         0.2500
     13 C13       -13.9197   -5.4645   56.2189 C.2     1  <0>         0.2400
     14 N14       -12.9497   -4.8605   57.0078 N.am    1  <0>        -0.6200
     15 C15       -12.5309   -3.6116   56.7227 C.2     1  <0>         0.5600
     16 O16       -13.0034   -3.0134   55.7757 O.2     1  <0>        -0.5000
     17 C17       -11.4972   -2.9694   57.5613 C.ar    1  <0>        -0.1400
     18 C18       -11.0490   -1.6824   57.2586 C.ar    1  <0>        -0.0800
     19 C19       -10.0842   -1.0884   58.0458 C.ar    1  <0>        -0.1300
     20 C20        -9.5611   -1.7654   59.1331 C.ar    1  <0>        -0.0800
     21 C21       -10.0004   -3.0414   59.4384 C.ar    1  <0>        -0.1300
     22 C22       -10.9689   -3.6447   58.6629 C.ar    1  <0>        -0.0500
     23 N23       -14.3871   -4.9722   55.1162 N.2     1  <0>        -0.5000
     24 C24       -16.2015   -6.0110   52.1348 C.2     1  <0>         0.1300
     25 C25       -15.8851   -7.4799   52.0200 C.3     1  <0>        -0.0900
     26 N26       -16.7903   -5.2540   51.1594 N.pl3   1  <0>        -0.4800
     27 C27       -17.2071   -5.7529   49.8466 C.3     1  <0>         0.0800
     28 H28       -16.5557    0.9321   52.1177 H       1  <0>         0.0500
     29 H29       -16.3020    1.5830   53.7549 H       1  <0>         0.1000
     30 H30       -15.1525    0.4047   53.0776 H       1  <0>         0.0500
     31 H31       -17.8820   -0.7316   51.2408 H       1  <0>         0.1300
     32 H32       -17.8629   -2.8489   50.0036 H       1  <0>         0.1200
     33 H33       -16.0275   -2.6210   54.5935 H       1  <0>         0.1300
     34 H34       -16.3589   -7.5603   54.7556 H       1  <0>         0.1800
     35 H35       -12.5736   -5.3374   57.7641 H       1  <0>         0.4200
     36 H36       -11.4563   -1.1530   56.4099 H       1  <0>         0.1300
     37 H37        -9.7363   -0.0929   57.8125 H       1  <0>         0.1300
     38 H38        -8.8060   -1.2958   59.7461 H       1  <0>         0.1300
     39 H39        -9.5877   -3.5645   60.2884 H       1  <0>         0.1300
     40 H40       -11.3113   -4.6405   58.9025 H       1  <0>         0.1400
     41 H41       -16.7661   -8.0634   52.2873 H       1  <0>         0.0800
     42 H42       -15.5943   -7.7099   50.9950 H       1  <0>         0.0700
     43 H43       -15.0659   -7.7290   52.6946 H       1  <0>         0.0800
     44 H44       -18.2369   -6.1059   49.9022 H       1  <0>         0.0700
     45 H45       -17.1377   -4.9492   49.1136 H       1  <0>         0.0800
     46 H46       -16.5570   -6.5749   49.5471 H       1  <0>         0.0800
@<TRIPOS>BOND
     1     1     2    1
     2     1    28    1
     3     1    29    1
     4     1    30    1
     5     2     3    1
     6     3     8   ar
     7     3     4   ar
     8     4     5   ar
     9     4    31    1
    10     5     6   ar
    11     5    32    1
    12     6    26    1
    13     6     7   ar
    14     7     8   ar
    15     7     9    1
    16     8    33    1
    17     9    10    1
    18     9    24    2
    19    10    23    1
    20    10    11    2
    21    11    12    1
    22    11    34    1
    23    12    13    1
    24    13    14    1
    25    13    23    2
    26    14    15   am
    27    14    35    1
    28    15    16    2
    29    15    17    1
    30    17    22   ar
    31    17    18   ar
    32    18    19   ar
    33    18    36    1
    34    19    20   ar
    35    19    37    1
    36    20    21   ar
    37    20    38    1
    38    21    22   ar
    39    21    39    1
    40    22    40    1
    41    24    25    1
    42    24    26    1
    43    25    41    1
    44    25    42    1
    45    25    43    1
    46    26    27    1
    47    27    44    1
    48    27    45    1
    49    27    46    1
@<TRIPOS>SUBSTRUCTURE
     1 <0>         1 TEMP              0 ****  ****    0 ROOT


##########                                Name:    ZINC000000992968
##########                DOCK_Rotatable_Bonds:                   8
##########                         Heavy_Atoms:                  27
##########                    Molecular_Weight:             384.772
##########                DOCK_Rotatable_Bonds:                   8
##########                       Formal_Charge:           0.0199999
##########                     HBond_Acceptors:                   7
##########                        HBond_Donors:                   0
##########                         Heavy_Atoms:                  27
##########                          Grid_Score:          -27.955364
##########                     Grid_vdw_energy:          -24.823809
##########                      Grid_es_energy:           -3.131555
##########           Internal_energy_repulsive:           10.171786

@<TRIPOS>MOLECULE
ZINC000000992968
 40 42 1 0 0
SMALL
USER_CHARGES


@<TRIPOS>ATOM
      1 O1          5.5992   -0.2132   55.0625 O.2     1  ZINC000000992968   -0.4600
      2 C2          5.1890    0.9318   55.0708 C.2     1  ZINC000000992968    0.5600
      3 O3          5.5271    1.7770   54.0746 O.3     1  ZINC000000992968   -0.2900
      4 C4          4.5289    2.3139   53.3285 C.ar    1  ZINC000000992968    0.1200
      5 C5          4.4526    3.6925   53.1625 C.ar    1  ZINC000000992968   -0.1300
      6 C6          3.4421    4.2421   52.4072 C.ar    1  ZINC000000992968   -0.0400
      7 C7          2.4899    3.4107   51.8050 C.ar    1  ZINC000000992968   -0.1600
      8 C8          1.4094    3.9920   50.9973 C.2     1  ZINC000000992968    0.4000
      9 O9          1.1461    5.1719   51.0956 O.2     1  ZINC000000992968   -0.4200
     10 C10         0.6279    3.1224   50.0464 C.3     1  ZINC000000992968    0.0200
     11 O11        -0.4560    2.4743   50.7628 O.3     1  ZINC000000992968   -0.3300
     12 C12        -1.5330    2.1076   50.0412 C.2     1  ZINC000000992968    0.5100
     13 O13        -2.6506    2.3225   50.4661 O.2     1  ZINC000000992968   -0.5000
     14 C14        -1.3550    1.4446   48.7339 C.ar    1  ZINC000000992968   -0.1300
     15 C15        -1.4117    2.1918   47.5552 C.ar    1  ZINC000000992968   -0.0500
     16 C16        -1.2441    1.5669   46.3376 C.ar    1  ZINC000000992968   -0.1200
     17 C17        -1.0204    0.2010   46.2818 C.ar    1  ZINC000000992968    0.0000
     18 Cl18       -0.8110   -0.5784   44.7449 Cl      1  ZINC000000992968   -0.0500
     19 C19        -0.9626   -0.5454   47.4473 C.ar    1  ZINC000000992968   -0.1200
     20 C20        -1.1233    0.0687   48.6713 C.ar    1  ZINC000000992968   -0.0400
     21 C21         2.5715    2.0233   51.9749 C.ar    1  ZINC000000992968   -0.0600
     22 C22         3.5891    1.4834   52.7279 C.ar    1  ZINC000000992968   -0.1200
     23 C23         4.3232    1.3915   56.1588 C.2     1  ZINC000000992968   -0.0700
     24 C24         3.7363    2.6221   56.2529 C.2     1  ZINC000000992968   -0.0900
     25 C25         3.0005    2.6276   57.4475 C.2     1  ZINC000000992968   -0.2300
     26 C26         3.1676    1.4161   58.0236 C.2     1  ZINC000000992968    0.0200
     27 O27         3.9603    0.6725   57.2414 O.3     1  ZINC000000992968   -0.1500
     28 H28         5.1875    4.3330   53.6274 H       1  ZINC000000992968    0.1400
     29 H29         3.3833    5.3130   52.2794 H       1  ZINC000000992968    0.1500
     30 H30         0.2176    3.7373   49.2455 H       1  ZINC000000992968    0.1100
     31 H31         1.2869    2.3650   49.6218 H       1  ZINC000000992968    0.1100
     32 H32        -1.5868    3.2566   47.5975 H       1  ZINC000000992968    0.1500
     33 H33        -1.2878    2.1435   45.4255 H       1  ZINC000000992968    0.1500
     34 H34        -0.7875   -1.6099   47.3973 H       1  ZINC000000992968    0.1500
     35 H35        -1.0777   -0.5143   49.5793 H       1  ZINC000000992968    0.1500
     36 H36         1.8393    1.3777   51.5127 H       1  ZINC000000992968    0.1400
     37 H37         3.6531    0.4134   52.8593 H       1  ZINC000000992968    0.1400
     38 H38         3.8223    3.4332   55.5451 H       1  ZINC000000992968    0.1700
     39 H39         2.4112    3.4459   57.8342 H       1  ZINC000000992968    0.1700
     40 H40         2.7304    1.0989   58.9588 H       1  ZINC000000992968    0.2200
@<TRIPOS>BOND
     1     1     2    2
     2     2     3    1
     3     2    23    1
     4     3     4    1
     5     4    22   ar
     6     4     5   ar
     7     5     6   ar
     8     5    28    1
     9     6     7   ar
    10     6    29    1
    11     7     8    1
    12     7    21   ar
    13     8     9    2
    14     8    10    1
    15    10    11    1
    16    10    30    1
    17    10    31    1
    18    11    12    1
    19    12    13    2
    20    12    14    1
    21    14    20   ar
    22    14    15   ar
    23    15    16   ar
    24    15    32    1
    25    16    17   ar
    26    16    33    1
    27    17    18    1
    28    17    19   ar
    29    19    20   ar
    30    19    34    1
    31    20    35    1
    32    21    22   ar
    33    21    36    1
    34    22    37    1
    35    23    27    1
    36    23    24    2
    37    24    25    1
    38    24    38    1
    39    25    26    2
    40    25    39    1
    41    26    27    1
    42    26    40    1
@<TRIPOS>SUBSTRUCTURE
     1 ZINC000000992968        1 TEMP              0 ****  ****    0 ROOT


##########                                Name:    ZINC000130059363
##########                DOCK_Rotatable_Bonds:                   4
##########                         Heavy_Atoms:                  29
##########                    Molecular_Weight:             389.497
##########                DOCK_Rotatable_Bonds:                   4
##########                       Formal_Charge:          -0.0100003
##########                     HBond_Acceptors:                   5
##########                        HBond_Donors:                   0
##########                         Heavy_Atoms:                  29
##########                          Grid_Score:          -27.937155
##########                     Grid_vdw_energy:          -26.784472
##########                      Grid_es_energy:           -1.152683
##########           Internal_energy_repulsive:           27.014257

@<TRIPOS>MOLECULE
ZINC000130059363
 56 60 1 0 0
SMALL
USER_CHARGES


@<TRIPOS>ATOM
      1 C1        -13.4517   -0.7484   60.3800 C.3     1  ZINC000130059363   -0.1200
      2 C2        -12.0396   -0.8613   60.8943 C.ar    1  ZINC000130059363    0.1900
      3 N3        -11.7691   -0.5154   62.1337 N.ar    1  ZINC000130059363   -0.4800
      4 C4        -10.5402   -0.5982   62.6303 C.ar    1  ZINC000130059363    0.2000
      5 C5        -10.2902   -0.1957   64.0348 C.ar    1  ZINC000130059363   -0.0600
      6 C6        -11.2271    0.5784   64.7183 C.ar    1  ZINC000130059363   -0.1000
      7 C7        -10.9891    0.9497   66.0259 C.ar    1  ZINC000130059363   -0.1200
      8 C8         -9.8234    0.5559   66.6584 C.ar    1  ZINC000130059363   -0.1000
      9 C9         -8.8900   -0.2117   65.9851 C.ar    1  ZINC000130059363   -0.1300
     10 C10        -9.1199   -0.5943   64.6794 C.ar    1  ZINC000130059363   -0.0700
     11 C11        -9.4820   -1.0594   61.8477 C.ar    1  ZINC000130059363   -0.1800
     12 C12        -9.7232   -1.4329   60.5404 C.ar    1  ZINC000130059363   -0.0400
     13 C13       -11.0331   -1.3374   60.0512 C.ar    1  ZINC000130059363   -0.1900
     14 C14       -11.3429   -1.7252   58.6600 C.2     1  ZINC000130059363    0.5700
     15 O15       -12.0130   -2.7153   58.4398 O.2     1  ZINC000130059363   -0.5200
     16 N16       -10.8827   -0.9812   57.6347 N.am    1  ZINC000130059363   -0.6000
     17 C17       -11.1861   -1.3484   56.2441 C.3     1  ZINC000130059363    0.1000
     18 C18       -11.8343   -0.1435   55.5558 C.3     1  ZINC000130059363   -0.1500
     19 C19       -10.9368    1.0802   55.7013 C.3     1  ZINC000130059363    0.1500
     20 H20       -11.4401    1.9276   55.2357 H       1  ZINC000130059363    0.0700
     21 C21       -10.7061    1.4147   57.1737 C.3     1  ZINC000130059363   -0.1100
     22 H22       -11.6497    1.6836   57.6484 H       1  ZINC000130059363    0.1000
     23 C23        -9.7243    2.5950   57.2445 C.3     1  ZINC000130059363   -0.1200
     24 C24        -8.3579    2.1104   56.7534 C.3     1  ZINC000130059363   -0.1400
     25 C25        -8.5064    1.3671   55.4573 C.2     1  ZINC000130059363    0.5200
     26 O26        -7.5162    1.1917   54.7794 O.2     1  ZINC000130059363   -0.5400
     27 N27        -9.6644    0.8820   55.0252 N.am    1  ZINC000130059363   -0.5700
     28 C28        -9.6726    0.1220   53.7728 C.3     1  ZINC000130059363    0.0700
     29 C29       -10.5845    0.6205   52.6499 C.3     1  ZINC000130059363   -0.1800
     30 C30        -9.0683    0.7911   52.5365 C.3     1  ZINC000130059363   -0.1600
     31 C31       -10.0721    0.2176   57.8818 C.3     1  ZINC000130059363    0.1100
     32 H32       -13.9516   -1.7121   60.4768 H       1  ZINC000130059363    0.0800
     33 H33       -13.9908    0.0005   60.9602 H       1  ZINC000130059363    0.0800
     34 H34       -13.4337   -0.4520   59.3313 H       1  ZINC000130059363    0.1000
     35 H35       -12.1372    0.8869   64.2254 H       1  ZINC000130059363    0.1300
     36 H36       -11.7140    1.5491   66.5564 H       1  ZINC000130059363    0.1300
     37 H37        -9.6411    0.8492   67.6817 H       1  ZINC000130059363    0.1300
     38 H38        -7.9816   -0.5159   66.4839 H       1  ZINC000130059363    0.1300
     39 H39        -8.3905   -1.1936   64.1546 H       1  ZINC000130059363    0.1400
     40 H40        -8.4855   -1.1234   62.2592 H       1  ZINC000130059363    0.1400
     41 H41        -8.9227   -1.7934   59.9114 H       1  ZINC000130059363    0.1400
     42 H42       -10.2652   -1.6155   55.7258 H       1  ZINC000130059363    0.0700
     43 H43       -11.8744   -2.1935   56.2295 H       1  ZINC000130059363    0.0900
     44 H44       -11.9773   -0.3642   54.4979 H       1  ZINC000130059363    0.0900
     45 H45       -12.8013    0.0597   56.0161 H       1  ZINC000130059363    0.0800
     46 H46       -10.0776    3.4059   56.6075 H       1  ZINC000130059363    0.0800
     47 H47        -9.6425    2.9441   58.2738 H       1  ZINC000130059363    0.0900
     48 H48        -7.7026    2.9687   56.6044 H       1  ZINC000130059363    0.1000
     49 H49        -7.9192    1.4494   57.5007 H       1  ZINC000130059363    0.1000
     50 H50        -9.5433   -0.9553   53.8758 H       1  ZINC000130059363    0.1100
     51 H51       -11.0555   -0.1291   52.0140 H       1  ZINC000130059363    0.1100
     52 H52       -11.1785    1.5138   52.8431 H       1  ZINC000130059363    0.1000
     53 H53        -8.6647    1.7966   52.6552 H       1  ZINC000130059363    0.1000
     54 H54        -8.5418    0.1538   51.8261 H       1  ZINC000130059363    0.1000
     55 H55       -10.0240    0.4118   58.9532 H       1  ZINC000130059363    0.1000
     56 H56        -9.0662    0.0562   57.4943 H       1  ZINC000130059363    0.0700
@<TRIPOS>BOND
     1     1     2    1
     2     1    32    1
     3     1    33    1
     4     1    34    1
     5     2    13   ar
     6     2     3   ar
     7     3     4   ar
     8     4     5    1
     9     4    11   ar
    10     5    10   ar
    11     5     6   ar
    12     6     7   ar
    13     6    35    1
    14     7     8   ar
    15     7    36    1
    16     8     9   ar
    17     8    37    1
    18     9    10   ar
    19     9    38    1
    20    10    39    1
    21    11    12   ar
    22    11    40    1
    23    12    13   ar
    24    12    41    1
    25    13    14    1
    26    14    15    2
    27    14    16   am
    28    16    31    1
    29    16    17    1
    30    17    18    1
    31    17    42    1
    32    17    43    1
    33    18    19    1
    34    18    44    1
    35    18    45    1
    36    19    20    1
    37    19    27    1
    38    19    21    1
    39    21    22    1
    40    21    23    1
    41    21    31    1
    42    23    24    1
    43    23    46    1
    44    23    47    1
    45    24    25    1
    46    24    48    1
    47    24    49    1
    48    25    26    2
    49    25    27   am
    50    27    28    1
    51    28    30    1
    52    28    29    1
    53    28    50    1
    54    29    30    1
    55    29    51    1
    56    29    52    1
    57    30    53    1
    58    30    54    1
    59    31    55    1
    60    31    56    1
@<TRIPOS>SUBSTRUCTURE
     1 ZINC000130059363        1 TEMP              0 ****  ****    0 ROOT


##########                                Name:    ZINC000435292384
##########                DOCK_Rotatable_Bonds:                   6
##########                         Heavy_Atoms:                  22
##########                    Molecular_Weight:             326.503
##########                DOCK_Rotatable_Bonds:                   6
##########                       Formal_Charge:         -0.00999993
##########                     HBond_Acceptors:                   5
##########                        HBond_Donors:                   0
##########                         Heavy_Atoms:                  22
##########                          Grid_Score:          -27.931801
##########                     Grid_vdw_energy:          -27.872522
##########                      Grid_es_energy:           -0.059279
##########           Internal_energy_repulsive:           26.188299

@<TRIPOS>MOLECULE
ZINC000435292384
 52 53 1 0 0
SMALL
USER_CHARGES


@<TRIPOS>ATOM
      1 C1         -4.7994    4.9908   53.5776 C.3     1  ZINC000435292384   -0.1500
      2 C2         -3.2794    5.1531   53.5146 C.3     1  ZINC000435292384   -0.1200
      3 C3         -2.7032    4.1688   52.4947 C.3     1  ZINC000435292384   -0.1400
      4 C4         -1.1832    4.3315   52.4313 C.3     1  ZINC000435292384    0.1600
      5 H5         -0.7549    4.1297   53.4132 H       1  ZINC000435292384    0.0900
      6 C6         -0.8405    5.7617   52.0096 C.3     1  ZINC000435292384   -0.1700
      7 N7         -0.6315    3.3890   51.4548 N.am    1  ZINC000435292384   -0.6100
      8 C8         -1.3461    2.9195   50.2619 C.3     1  ZINC000435292384    0.1200
      9 C9         -0.2603    2.3223   49.3395 C.3     1  ZINC000435292384   -0.1300
     10 H10         0.1102    3.0701   48.6383 H       1  ZINC000435292384    0.1100
     11 C11        -0.7804    1.1118   48.6079 C.2     1  ZINC000435292384    0.5200
     12 O12        -1.7238    0.4932   49.0530 O.2     1  ZINC000435292384   -0.5200
     13 N13        -0.1971    0.7167   47.4590 N.am    1  ZINC000435292384   -0.6000
     14 C14        -0.7308   -0.4730   46.7671 C.3     1  ZINC000435292384    0.1000
     15 C15        -0.8098   -0.2712   45.2430 C.3     1  ZINC000435292384   -0.1300
     16 C16        -1.2937    1.1231   44.9291 C.3     1  ZINC000435292384   -0.1100
     17 C17        -0.0932    2.0509   44.7693 C.3     1  ZINC000435292384   -0.1200
     18 C18         0.4133    2.6094   46.0323 C.3     1  ZINC000435292384   -0.0700
     19 H19        -0.3889    3.1494   46.5354 H       1  ZINC000435292384    0.0900
     20 S20         1.7770    3.7524   45.6792 S.3     1  ZINC000435292384   -0.2500
     21 C21         0.9692    5.0705   44.7302 C.3     1  ZINC000435292384   -0.1200
     22 C22         0.9219    1.4790   46.9519 C.3     1  ZINC000435292384    0.1400
     23 C23         0.8350    1.9269   50.3567 C.3     1  ZINC000435292384   -0.1400
     24 C24         0.5963    2.8475   51.5332 C.2     1  ZINC000435292384    0.5200
     25 O25         1.3939    3.0604   52.4216 O.2     1  ZINC000435292384   -0.5200
     26 H26        -5.2099    5.6920   54.3042 H       1  ZINC000435292384    0.0500
     27 H27        -5.2274    5.1929   52.5957 H       1  ZINC000435292384    0.0500
     28 H28        -5.0439    3.9718   53.8778 H       1  ZINC000435292384    0.0500
     29 H29        -3.0348    6.1720   53.2144 H       1  ZINC000435292384    0.0600
     30 H30        -2.8513    4.9510   54.4965 H       1  ZINC000435292384    0.0600
     31 H31        -2.9472    3.1498   52.7952 H       1  ZINC000435292384    0.0800
     32 H32        -3.1315    4.3705   51.5130 H       1  ZINC000435292384    0.0800
     33 H33        -1.2688    5.9635   51.0278 H       1  ZINC000435292384    0.0700
     34 H34        -1.2511    6.4630   52.7361 H       1  ZINC000435292384    0.0700
     35 H35         0.2423    5.8776   51.9643 H       1  ZINC000435292384    0.0600
     36 H36        -2.0725    2.1539   50.5344 H       1  ZINC000435292384    0.0900
     37 H37        -1.8438    3.7538   49.7677 H       1  ZINC000435292384    0.0800
     38 H38        -0.0844   -1.3249   46.9783 H       1  ZINC000435292384    0.0700
     39 H39        -1.7296   -0.6857   47.1482 H       1  ZINC000435292384    0.0900
     40 H40         0.1786   -0.4175   44.8072 H       1  ZINC000435292384    0.0700
     41 H41        -1.5015   -0.9983   44.8175 H       1  ZINC000435292384    0.0800
     42 H42        -1.8681    1.1087   44.0028 H       1  ZINC000435292384    0.0700
     43 H43        -1.9242    1.4810   45.7430 H       1  ZINC000435292384    0.0600
     44 H44         0.7122    1.4952   44.2890 H       1  ZINC000435292384    0.0800
     45 H45        -0.3777    2.8755   44.1157 H       1  ZINC000435292384    0.0600
     46 H46         0.5301    4.6501   43.8256 H       1  ZINC000435292384    0.0800
     47 H47         0.1863    5.5269   45.3360 H       1  ZINC000435292384    0.0800
     48 H48         1.7059    5.8268   44.4590 H       1  ZINC000435292384    0.1000
     49 H49         1.4724    1.9108   47.7877 H       1  ZINC000435292384    0.0900
     50 H50         1.5802    0.8194   46.3864 H       1  ZINC000435292384    0.0900
     51 H51         0.7211    0.8843   50.6540 H       1  ZINC000435292384    0.1100
     52 H52         1.8259    2.0986   49.9364 H       1  ZINC000435292384    0.1100
@<TRIPOS>BOND
     1     1     2    1
     2     1    26    1
     3     1    27    1
     4     1    28    1
     5     2     3    1
     6     2    29    1
     7     2    30    1
     8     3     4    1
     9     3    31    1
    10     3    32    1
    11     4     5    1
    12     4     6    1
    13     4     7    1
    14     6    33    1
    15     6    34    1
    16     6    35    1
    17     7    24   am
    18     7     8    1
    19     8     9    1
    20     8    36    1
    21     8    37    1
    22     9    10    1
    23     9    11    1
    24     9    23    1
    25    11    12    2
    26    11    13   am
    27    13    22    1
    28    13    14    1
    29    14    15    1
    30    14    38    1
    31    14    39    1
    32    15    16    1
    33    15    40    1
    34    15    41    1
    35    16    17    1
    36    16    42    1
    37    16    43    1
    38    17    18    1
    39    17    44    1
    40    17    45    1
    41    18    19    1
    42    18    20    1
    43    18    22    1
    44    20    21    1
    45    21    46    1
    46    21    47    1
    47    21    48    1
    48    22    49    1
    49    22    50    1
    50    23    24    1
    51    23    51    1
    52    23    52    1
    53    24    25    2
@<TRIPOS>SUBSTRUCTURE
     1 ZINC000435292384        1 TEMP              0 ****  ****    0 ROOT


##########                                Name:    ZINC000650955167
##########                DOCK_Rotatable_Bonds:                   9
##########                         Heavy_Atoms:                  26
##########                    Molecular_Weight:             361.484
##########                DOCK_Rotatable_Bonds:                   9
##########                       Formal_Charge:        -7.07805e-07
##########                     HBond_Acceptors:                   6
##########                        HBond_Donors:                   2
##########                         Heavy_Atoms:                  26
##########                          Grid_Score:          -27.930695
##########                     Grid_vdw_energy:          -27.843590
##########                      Grid_es_energy:           -0.087105
##########           Internal_energy_repulsive:           15.276804

@<TRIPOS>MOLECULE
ZINC000650955167
 57 59 1 0 0
SMALL
USER_CHARGES


@<TRIPOS>ATOM
      1 C1        -13.5588   -4.6722   56.8660 C.3     1  ZINC000650955167    0.0200
      2 O2        -14.4243   -3.5384   56.9537 O.3     1  ZINC000650955167   -0.3200
      3 C3        -14.8206   -3.1596   58.1972 C.ar    1  ZINC000650955167    0.1300
      4 C4        -15.6054   -4.0076   58.9647 C.ar    1  ZINC000650955167   -0.2000
      5 C5        -16.0066   -3.6202   60.2289 C.ar    1  ZINC000650955167   -0.0800
      6 C6        -15.6269   -2.3886   60.7287 C.ar    1  ZINC000650955167   -0.1500
      7 C7        -14.8451   -1.5411   59.9653 C.ar    1  ZINC000650955167   -0.0800
      8 C8        -14.4362   -1.9262   58.7034 C.ar    1  ZINC000650955167   -0.1100
      9 C9        -13.5837   -1.0024   57.8722 C.3     1  ZINC000650955167   -0.0800
     10 C10       -12.1107   -1.3823   58.0362 C.3     1  ZINC000650955167    0.1800
     11 H11       -12.0162   -2.4678   58.0627 H       1  ZINC000650955167    0.0900
     12 N12       -11.5968   -0.8166   59.2861 N.am    1  ZINC000650955167   -0.7300
     13 C13       -10.9670   -1.6094   60.1758 C.2     1  ZINC000650955167    0.7400
     14 O14       -10.8240   -2.7936   59.9403 O.2     1  ZINC000650955167   -0.5800
     15 N15       -10.4958   -1.0893   61.3264 N.am    1  ZINC000650955167   -0.6700
     16 C16        -9.7738   -1.5995   62.5017 C.3     1  ZINC000650955167    0.1100
     17 C17       -10.4163   -0.4702   63.3190 C.3     1  ZINC000650955167    0.0300
     18 N18        -9.5112    0.1622   64.2880 N.3     1  ZINC000650955167   -0.5100
     19 C19        -9.0111   -0.8251   65.2683 C.3     1  ZINC000650955167    0.0400
     20 C20        -8.8613   -0.0300   66.5893 C.3     1  ZINC000650955167   -0.1600
     21 C21       -10.0860    0.9200   66.5238 C.3     1  ZINC000650955167    0.0800
     22 H22       -10.9856    0.4137   66.8736 H       1  ZINC000650955167    0.0600
     23 O23        -9.8471    2.1056   67.2850 O.3     1  ZINC000650955167   -0.5600
     24 C24       -10.1932    1.2457   65.0192 C.3     1  ZINC000650955167    0.0500
     25 C25       -10.4714    0.2395   61.9561 C.3     1  ZINC000650955167    0.1400
     26 C26       -11.3071   -0.8290   56.8577 C.3     1  ZINC000650955167   -0.1100
     27 C27        -9.8445   -0.6577   57.2733 C.3     1  ZINC000650955167   -0.1400
     28 C28       -11.3921   -1.8026   55.6805 C.3     1  ZINC000650955167   -0.1500
     29 H29       -13.3194   -4.8666   55.8205 H       1  ZINC000650955167    0.1000
     30 H30       -12.6403   -4.4717   57.4177 H       1  ZINC000650955167    0.0600
     31 H31       -14.0563   -5.5430   57.2929 H       1  ZINC000650955167    0.0600
     32 H32       -15.9028   -4.9697   58.5745 H       1  ZINC000650955167    0.1300
     33 H33       -16.6176   -4.2802   60.8269 H       1  ZINC000650955167    0.1200
     34 H34       -15.9418   -2.0874   61.7169 H       1  ZINC000650955167    0.1200
     35 H35       -14.5501   -0.5792   60.3579 H       1  ZINC000650955167    0.1300
     36 H36       -13.8673   -1.0916   56.8235 H       1  ZINC000650955167    0.0900
     37 H37       -13.7328    0.0254   58.2028 H       1  ZINC000650955167    0.0800
     38 H38       -11.7099    0.1284   59.4734 H       1  ZINC000650955167    0.4000
     39 H39       -10.0942   -2.5947   62.8097 H       1  ZINC000650955167    0.0700
     40 H40        -8.6906   -1.5121   62.4173 H       1  ZINC000650955167    0.0900
     41 H41       -11.3902   -0.7209   63.7392 H       1  ZINC000650955167    0.0900
     42 H42        -9.7304   -1.6347   65.3922 H       1  ZINC000650955167    0.0500
     43 H43        -8.0456   -1.2193   64.9511 H       1  ZINC000650955167    0.0900
     44 H44        -8.9263   -0.6919   67.4529 H       1  ZINC000650955167    0.0800
     45 H45        -7.9291    0.5348   66.6014 H       1  ZINC000650955167    0.0900
     46 H46        -9.0573    2.5938   67.0150 H       1  ZINC000650955167    0.3800
     47 H47        -9.7060    2.1980   64.8101 H       1  ZINC000650955167    0.0900
     48 H48       -11.2414    1.2901   64.7232 H       1  ZINC000650955167    0.0700
     49 H49        -9.5737    0.8146   61.7296 H       1  ZINC000650955167    0.0900
     50 H50       -11.3878    0.8087   61.7998 H       1  ZINC000650955167    0.0800
     51 H51       -11.7158    0.1368   56.5606 H       1  ZINC000650955167    0.0700
     52 H52        -9.4357   -1.6235   57.5703 H       1  ZINC000650955167    0.0600
     53 H53        -9.2720   -0.2636   56.4337 H       1  ZINC000650955167    0.0400
     54 H54        -9.7840    0.0358   58.1119 H       1  ZINC000650955167    0.0500
     55 H55       -12.4340   -1.9247   55.3844 H       1  ZINC000650955167    0.0600
     56 H56       -10.8195   -1.4085   54.8409 H       1  ZINC000650955167    0.0600
     57 H57       -10.9833   -2.7685   55.9776 H       1  ZINC000650955167    0.0600
@<TRIPOS>BOND
     1     1     2    1
     2     1    29    1
     3     1    30    1
     4     1    31    1
     5     2     3    1
     6     3     8   ar
     7     3     4   ar
     8     4     5   ar
     9     4    32    1
    10     5     6   ar
    11     5    33    1
    12     6     7   ar
    13     6    34    1
    14     7     8   ar
    15     7    35    1
    16     8     9    1
    17     9    10    1
    18     9    36    1
    19     9    37    1
    20    10    11    1
    21    10    12    1
    22    10    26    1
    23    12    13   am
    24    12    38    1
    25    13    14    2
    26    13    15   am
    27    15    25    1
    28    15    16    1
    29    16    17    1
    30    16    39    1
    31    16    40    1
    32    17    18    1
    33    17    25    1
    34    17    41    1
    35    18    24    1
    36    18    19    1
    37    19    20    1
    38    19    42    1
    39    19    43    1
    40    20    21    1
    41    20    44    1
    42    20    45    1
    43    21    22    1
    44    21    23    1
    45    21    24    1
    46    23    46    1
    47    24    47    1
    48    24    48    1
    49    25    49    1
    50    25    50    1
    51    26    27    1
    52    26    28    1
    53    26    51    1
    54    27    52    1
    55    27    53    1
    56    27    54    1
    57    28    55    1
    58    28    56    1
    59    28    57    1
@<TRIPOS>SUBSTRUCTURE
     1 ZINC000650955167        1 TEMP              0 ****  ****    0 ROOT


##########                                Name:    ZINC001327099466
##########                DOCK_Rotatable_Bonds:                   7
##########                         Heavy_Atoms:                  27
##########                    Molecular_Weight:             374.483
##########                DOCK_Rotatable_Bonds:                   7
##########                       Formal_Charge:           0.0199998
##########                     HBond_Acceptors:                   7
##########                        HBond_Donors:                   1
##########                         Heavy_Atoms:                  27
##########                          Grid_Score:          -27.922974
##########                     Grid_vdw_energy:          -27.568264
##########                      Grid_es_energy:           -0.354709
##########           Internal_energy_repulsive:           14.902021

@<TRIPOS>MOLECULE
ZINC001327099466
 57 60 1 0 0
SMALL
USER_CHARGES


@<TRIPOS>ATOM
      1 O1          0.0931    3.1070   52.6551 O.2     1  ZINC001327099466   -0.4800
      2 C2         -0.4617    3.8925   51.9145 C.2     1  ZINC001327099466    0.5300
      3 N3         -1.4641    4.6644   52.3792 N.am    1  ZINC001327099466   -0.6000
      4 C4         -1.8690    4.5561   53.7142 C.2     1  ZINC001327099466    0.2900
      5 N5         -1.1244    4.1482   54.7154 N.2     1  ZINC001327099466   -0.3100
      6 N6         -1.9006    4.1863   55.8808 N.pl3   1  ZINC001327099466   -0.3500
      7 C7         -1.4539    3.8118   57.2248 C.3     1  ZINC001327099466    0.1700
      8 C8         -1.9366    2.3960   57.5466 C.3     1  ZINC001327099466   -0.1300
      9 C9         -1.4699    2.0049   58.9503 C.3     1  ZINC001327099466   -0.1200
     10 C10         0.0582    2.0488   59.0105 C.3     1  ZINC001327099466   -0.1300
     11 C11         0.5408    3.4645   58.6886 C.3     1  ZINC001327099466   -0.1200
     12 C12         0.0743    3.8556   57.2850 C.3     1  ZINC001327099466   -0.1300
     13 C13        -3.1320    4.6288   55.5490 C.2     1  ZINC001327099466    0.0700
     14 C14        -3.1417    4.8705   54.2187 C.2     1  ZINC001327099466   -0.2700
     15 C15        -0.0294    4.0081   50.4896 C.2     1  ZINC001327099466    0.5100
     16 O16         0.9032    4.7264   50.1947 O.2     1  ZINC001327099466   -0.5100
     17 N17        -0.6752    3.3148   49.5311 N.am    1  ZINC001327099466   -0.5700
     18 C18        -1.8062    2.4412   49.8725 C.3     1  ZINC001327099466    0.0400
     19 C19        -1.5371    1.0427   49.3078 C.3     1  ZINC001327099466   -0.1300
     20 C20        -1.2551    1.1485   47.8073 C.3     1  ZINC001327099466   -0.1200
     21 C21        -0.0102    2.0090   47.5799 C.3     1  ZINC001327099466    0.0800
     22 H22         0.8390    1.5645   48.0989 H       1  ZINC001327099466    0.0700
     23 O23         0.2707    2.0812   46.1806 O.3     1  ZINC001327099466   -0.3500
     24 C24         1.5524    1.5642   45.8176 C.3     1  ZINC001327099466    0.0600
     25 C25         1.4965    0.1568   45.2003 C.3     1  ZINC001327099466   -0.1600
     26 C26         1.3296    0.8474   43.8363 C.3     1  ZINC001327099466   -0.1400
     27 C27         2.0513    2.0588   44.4497 C.3     1  ZINC001327099466   -0.1400
     28 C28        -0.2655    3.4227   48.1243 C.3     1  ZINC001327099466    0.0900
     29 H29        -1.9047    5.2948   51.7883 H       1  ZINC001327099466    0.4300
     30 H30        -1.8664    4.5105   57.9527 H       1  ZINC001327099466    0.1000
     31 H31        -3.0252    2.3648   57.5038 H       1  ZINC001327099466    0.0700
     32 H32        -1.5240    1.6973   56.8188 H       1  ZINC001327099466    0.0700
     33 H33        -1.8825    2.7036   59.6781 H       1  ZINC001327099466    0.0700
     34 H34        -1.8138    0.9963   59.1795 H       1  ZINC001327099466    0.0700
     35 H35         0.3906    1.7702   60.0104 H       1  ZINC001327099466    0.0700
     36 H36         0.4707    1.3501   58.2826 H       1  ZINC001327099466    0.0700
     37 H37         0.1283    4.1633   59.4165 H       1  ZINC001327099466    0.0700
     38 H38         1.6296    3.4959   58.7315 H       1  ZINC001327099466    0.0700
     39 H39         0.4868    3.1569   56.5571 H       1  ZINC001327099466    0.0700
     40 H40         0.4181    4.8643   57.0557 H       1  ZINC001327099466    0.0700
     41 H41        -3.9611    4.7688   56.2267 H       1  ZINC001327099466    0.1800
     42 H42        -3.9809    5.2351   53.6448 H       1  ZINC001327099466    0.1700
     43 H43        -1.9098    2.3840   50.9560 H       1  ZINC001327099466    0.1600
     44 H44        -2.7216    2.8413   49.4365 H       1  ZINC001327099466    0.0700
     45 H45        -0.6736    0.6074   49.8105 H       1  ZINC001327099466    0.0700
     46 H46        -2.4101    0.4107   49.4702 H       1  ZINC001327099466    0.0900
     47 H47        -1.0876    0.1521   47.3983 H       1  ZINC001327099466    0.0800
     48 H48        -2.1093    1.6066   47.3086 H       1  ZINC001327099466    0.0800
     49 H49         2.2902    1.6642   46.6137 H       1  ZINC001327099466    0.0700
     50 H50         2.4288   -0.3996   45.2967 H       1  ZINC001327099466    0.0900
     51 H51         0.6243   -0.4203   45.5071 H       1  ZINC001327099466    0.0700
     52 H52         1.8880    0.3674   43.0327 H       1  ZINC001327099466    0.0700
     53 H53         0.2910    1.0458   43.5716 H       1  ZINC001327099466    0.0800
     54 H54         1.6268    3.0173   44.1506 H       1  ZINC001327099466    0.0800
     55 H55         3.1352    2.0225   44.3410 H       1  ZINC001327099466    0.0900
     56 H56        -1.0547    3.9006   47.5439 H       1  ZINC001327099466    0.0900
     57 H57         0.6492    4.0115   48.0555 H       1  ZINC001327099466    0.1000
@<TRIPOS>BOND
     1     1     2    2
     2     2     3   am
     3     2    15    1
     4     3     4    1
     5     3    29    1
     6     4    14    1
     7     4     5    2
     8     5     6    1
     9     6     7    1
    10     6    13    1
    11     7    12    1
    12     7     8    1
    13     7    30    1
    14     8     9    1
    15     8    31    1
    16     8    32    1
    17     9    10    1
    18     9    33    1
    19     9    34    1
    20    10    11    1
    21    10    35    1
    22    10    36    1
    23    11    12    1
    24    11    37    1
    25    11    38    1
    26    12    39    1
    27    12    40    1
    28    13    14    2
    29    13    41    1
    30    14    42    1
    31    15    16    2
    32    15    17   am
    33    17    28    1
    34    17    18    1
    35    18    19    1
    36    18    43    1
    37    18    44    1
    38    19    20    1
    39    19    45    1
    40    19    46    1
    41    20    21    1
    42    20    47    1
    43    20    48    1
    44    21    22    1
    45    21    23    1
    46    21    28    1
    47    23    24    1
    48    24    27    1
    49    24    25    1
    50    24    49    1
    51    25    26    1
    52    25    50    1
    53    25    51    1
    54    26    27    1
    55    26    52    1
    56    26    53    1
    57    27    54    1
    58    27    55    1
    59    28    56    1
    60    28    57    1
@<TRIPOS>SUBSTRUCTURE
     1 ZINC001327099466        1 TEMP              0 ****  ****    0 ROOT


##########                                Name:    ZINC000151991096
##########                DOCK_Rotatable_Bonds:                   8
##########                         Heavy_Atoms:                  27
##########                    Molecular_Weight:             364.444
##########                DOCK_Rotatable_Bonds:                   8
##########                       Formal_Charge:          -0.0200004
##########                     HBond_Acceptors:                   5
##########                        HBond_Donors:                   1
##########                         Heavy_Atoms:                  27
##########                          Grid_Score:          -27.903721
##########                     Grid_vdw_energy:          -25.971170
##########                      Grid_es_energy:           -1.932551
##########           Internal_energy_repulsive:           16.419138

@<TRIPOS>MOLECULE
ZINC000151991096
 51 53 1 0 0
SMALL
USER_CHARGES


@<TRIPOS>ATOM
      1 C1         -7.0437    4.2422   56.8519 C.3     1  ZINC000151991096   -0.1500
      2 C2         -5.7370    3.5945   56.3894 C.3     1  ZINC000151991096   -0.1300
      3 C3         -4.8252    4.6627   55.7823 C.3     1  ZINC000151991096    0.1400
      4 H4         -5.4046    5.5641   55.5823 H       1  ZINC000151991096    0.1000
      5 N5         -4.2531    4.1620   54.5301 N.am    1  ZINC000151991096   -0.7200
      6 C6         -3.9054    5.0254   53.5554 C.2     1  ZINC000151991096    0.5600
      7 O7         -4.0682    6.2198   53.7147 O.2     1  ZINC000151991096   -0.5300
      8 C8         -3.3273    4.5211   52.2944 C.ar    1  ZINC000151991096   -0.1700
      9 C9         -2.7846    5.4135   51.3663 C.ar    1  ZINC000151991096   -0.0500
     10 C10        -2.2457    4.9389   50.1913 C.ar    1  ZINC000151991096   -0.1600
     11 C11        -2.2413    3.5741   49.9278 C.ar    1  ZINC000151991096    0.1600
     12 O12        -1.7090    3.1103   48.7689 O.3     1  ZINC000151991096   -0.3000
     13 C13        -0.6085    2.2051   48.8769 C.3     1  ZINC000151991096    0.0900
     14 C14        -0.7769    1.0884   47.8792 C.ar    1  ZINC000151991096   -0.0500
     15 C15        -1.0938   -0.1826   48.3110 C.ar    1  ZINC000151991096   -0.1000
     16 C16        -1.2488   -1.2092   47.3961 C.ar    1  ZINC000151991096   -0.0900
     17 C17        -1.0867   -0.9691   46.0433 C.ar    1  ZINC000151991096   -0.1200
     18 C18        -0.7695    0.2974   45.5975 C.ar    1  ZINC000151991096   -0.0700
     19 C19        -0.6178    1.3392   46.5145 C.ar    1  ZINC000151991096   -0.0200
     20 C20        -0.2887    2.6564   46.0589 C.1     1  ZINC000151991096    0.2400
     21 N21        -0.0276    3.7011   45.6974 N.1     1  ZINC000151991096   -0.4000
     22 C22        -2.7803    2.6832   50.8485 C.ar    1  ZINC000151991096   -0.2200
     23 C23        -3.3162    3.1493   52.0282 C.ar    1  ZINC000151991096   -0.0100
     24 C24        -3.6978    4.9886   56.7639 C.3     1  ZINC000151991096    0.0700
     25 H25        -3.1299    5.8461   56.4031 H       1  ZINC000151991096    0.1000
     26 C26        -2.7645    3.7679   56.9136 C.3     1  ZINC000151991096   -0.1500
     27 C27        -2.4372    3.7874   58.4316 C.3     1  ZINC000151991096   -0.1600
     28 C28        -3.7726    4.3149   59.0137 C.3     1  ZINC000151991096    0.0500
     29 O29        -4.2462    5.2773   58.0553 O.3     1  ZINC000151991096   -0.3700
     30 H30        -7.5422    4.7037   55.9994 H       1  ZINC000151991096    0.0500
     31 H31        -7.6932    3.4813   57.2844 H       1  ZINC000151991096    0.0500
     32 H32        -6.8266    5.0033   57.6014 H       1  ZINC000151991096    0.0600
     33 H33        -5.2385    3.1332   57.2419 H       1  ZINC000151991096    0.0700
     34 H34        -5.9541    2.8335   55.6399 H       1  ZINC000151991096    0.0700
     35 H35        -4.1243    3.2091   54.4025 H       1  ZINC000151991096    0.4000
     36 H36        -2.7880    6.4740   51.5700 H       1  ZINC000151991096    0.1300
     37 H37        -1.8264    5.6281   49.4731 H       1  ZINC000151991096    0.1400
     38 H38         0.3208    2.7370   48.6735 H       1  ZINC000151991096    0.0800
     39 H39        -0.5768    1.7904   49.8845 H       1  ZINC000151991096    0.0800
     40 H40        -1.2212   -0.3770   49.3657 H       1  ZINC000151991096    0.1400
     41 H41        -1.4970   -2.2025   47.7398 H       1  ZINC000151991096    0.1400
     42 H42        -1.2082   -1.7751   45.3348 H       1  ZINC000151991096    0.1400
     43 H43        -0.6428    0.4834   44.5412 H       1  ZINC000151991096    0.1400
     44 H44        -2.7752    1.6234   50.6400 H       1  ZINC000151991096    0.1300
     45 H45        -3.7345    2.4564   52.7432 H       1  ZINC000151991096    0.1400
     46 H46        -3.2817    2.8483   56.6399 H       1  ZINC000151991096    0.0800
     47 H47        -1.8594    3.8966   56.3199 H       1  ZINC000151991096    0.0900
     48 H48        -2.2173    2.7850   58.7989 H       1  ZINC000151991096    0.0800
     49 H49        -1.6168    4.4717   58.6479 H       1  ZINC000151991096    0.0800
     50 H50        -4.4885    3.4996   59.1174 H       1  ZINC000151991096    0.0600
     51 H51        -3.6021    4.7946   59.9775 H       1  ZINC000151991096    0.0900
@<TRIPOS>BOND
     1     1     2    1
     2     1    30    1
     3     1    31    1
     4     1    32    1
     5     2     3    1
     6     2    33    1
     7     2    34    1
     8     3     4    1
     9     3     5    1
    10     3    24    1
    11     5     6   am
    12     5    35    1
    13     6     7    2
    14     6     8    1
    15     8    23   ar
    16     8     9   ar
    17     9    10   ar
    18     9    36    1
    19    10    11   ar
    20    10    37    1
    21    11    12    1
    22    11    22   ar
    23    12    13    1
    24    13    14    1
    25    13    38    1
    26    13    39    1
    27    14    19   ar
    28    14    15   ar
    29    15    16   ar
    30    15    40    1
    31    16    17   ar
    32    16    41    1
    33    17    18   ar
    34    17    42    1
    35    18    19   ar
    36    18    43    1
    37    19    20    1
    38    20    21    3
    39    22    23   ar
    40    22    44    1
    41    23    45    1
    42    24    25    1
    43    24    29    1
    44    24    26    1
    45    26    27    1
    46    26    46    1
    47    26    47    1
    48    27    28    1
    49    27    48    1
    50    27    49    1
    51    28    29    1
    52    28    50    1
    53    28    51    1
@<TRIPOS>SUBSTRUCTURE
     1 ZINC000151991096        1 TEMP              0 ****  ****    0 ROOT


##########                                Name:    ZINC000451500596
##########                DOCK_Rotatable_Bonds:                   7
##########                         Heavy_Atoms:                  25
##########                    Molecular_Weight:             365.497
##########                DOCK_Rotatable_Bonds:                   7
##########                       Formal_Charge:           0.0400004
##########                     HBond_Acceptors:                   7
##########                        HBond_Donors:                   2
##########                         Heavy_Atoms:                  25
##########                          Grid_Score:          -27.872345
##########                     Grid_vdw_energy:          -26.495359
##########                      Grid_es_energy:           -1.376985
##########           Internal_energy_repulsive:           10.306947

@<TRIPOS>MOLECULE
ZINC000451500596
 52 54 1 0 0
SMALL
USER_CHARGES


@<TRIPOS>ATOM
      1 C1        -19.0615   -2.5472   59.5845 C.3     1  ZINC000451500596   -0.6700
      2 S2        -17.3399   -3.0458   59.8643 S.o2    1  ZINC000451500596    2.6100
      3 O3        -16.5647   -1.9378   60.3010 O.2     1  ZINC000451500596   -0.9500
      4 O4        -17.2861   -4.2917   60.5456 O.2     1  ZINC000451500596   -0.9600
      5 N5        -16.7560   -3.3819   58.3516 N.am    1  ZINC000451500596   -1.1200
      6 C6        -15.3696   -3.8243   58.1833 C.3     1  ZINC000451500596    0.1200
      7 C7        -14.5030   -2.6365   57.7600 C.3     1  ZINC000451500596   -0.1000
      8 H8        -14.6666   -1.7961   58.4346 H       1  ZINC000451500596    0.0900
      9 C9        -14.8410   -2.2253   56.3121 C.3     1  ZINC000451500596   -0.1200
     10 C10       -13.4751   -1.8218   55.7032 C.3     1  ZINC000451500596   -0.1300
     11 C11       -12.5048   -2.8574   56.3240 C.3     1  ZINC000451500596   -0.1300
     12 C12       -13.0176   -3.0381   57.7688 C.3     1  ZINC000451500596    0.1400
     13 H13       -12.9142   -4.0793   58.0742 H       1  ZINC000451500596    0.1000
     14 N14       -12.2664   -2.1710   58.6800 N.am    1  ZINC000451500596   -0.7200
     15 C15       -11.2310   -2.6696   59.3841 C.2     1  ZINC000451500596    0.5300
     16 O16       -10.9221   -3.8364   59.2645 O.2     1  ZINC000451500596   -0.5300
     17 C17       -10.4570   -1.7775   60.3200 C.3     1  ZINC000451500596   -0.1300
     18 H18        -9.5036   -2.2343   60.5854 H       1  ZINC000451500596    0.1000
     19 C19       -10.2374   -0.3780   59.6875 C.3     1  ZINC000451500596   -0.1200
     20 C20       -10.0863    0.5136   60.9452 C.3     1  ZINC000451500596    0.0500
     21 N21       -11.0420   -0.0481   61.9233 N.3     1  ZINC000451500596   -0.4900
     22 C22       -10.5558    0.0765   63.2268 C.ar    1  ZINC000451500596    0.0800
     23 C23        -9.3322   -0.4843   63.5699 C.ar    1  ZINC000451500596   -0.0900
     24 C24        -8.8542   -0.3588   64.8595 C.ar    1  ZINC000451500596   -0.1100
     25 C25        -9.5925    0.3238   65.8089 C.ar    1  ZINC000451500596   -0.1200
     26 C26       -10.8112    0.8832   65.4707 C.ar    1  ZINC000451500596   -0.1100
     27 C27       -11.2923    0.7664   64.1815 C.ar    1  ZINC000451500596   -0.1500
     28 C28       -11.2836   -1.4659   61.5853 C.3     1  ZINC000451500596    0.0600
     29 H29       -19.0853   -1.6719   58.9353 H       1  ZINC000451500596    0.1300
     30 H30       -19.6044   -3.3654   59.1112 H       1  ZINC000451500596    0.1300
     31 H31       -19.5293   -2.3047   60.5387 H       1  ZINC000451500596    0.1300
     32 H32       -17.3319   -3.2858   57.5770 H       1  ZINC000451500596    0.4200
     33 H33       -14.9993   -4.2263   59.1264 H       1  ZINC000451500596    0.0700
     34 H34       -15.3256   -4.5977   57.4164 H       1  ZINC000451500596    0.0900
     35 H35       -15.2682   -3.0666   55.7664 H       1  ZINC000451500596    0.0800
     36 H36       -15.5264   -1.3779   56.3063 H       1  ZINC000451500596    0.0700
     37 H37       -13.4942   -1.9130   54.6172 H       1  ZINC000451500596    0.0700
     38 H38       -13.2027   -0.8096   56.0022 H       1  ZINC000451500596    0.0700
     39 H39       -12.5549   -3.8008   55.7802 H       1  ZINC000451500596    0.0800
     40 H40       -11.4856   -2.4713   56.3268 H       1  ZINC000451500596    0.0700
     41 H41       -12.5141   -1.2383   58.7765 H       1  ZINC000451500596    0.4000
     42 H42        -9.3293   -0.3599   59.0847 H       1  ZINC000451500596    0.0800
     43 H43       -11.1024   -0.0764   59.0968 H       1  ZINC000451500596    0.0800
     44 H44        -9.0689    0.4549   61.3320 H       1  ZINC000451500596    0.0600
     45 H45       -10.3452    1.5463   60.7116 H       1  ZINC000451500596    0.0900
     46 H46        -8.7553   -1.0180   62.8291 H       1  ZINC000451500596    0.1300
     47 H47        -7.9029   -0.7945   65.1269 H       1  ZINC000451500596    0.1300
     48 H48        -9.2168    0.4198   66.8168 H       1  ZINC000451500596    0.1200
     49 H49       -11.3853    1.4155   66.2146 H       1  ZINC000451500596    0.1200
     50 H50       -12.2440    1.2037   63.9179 H       1  ZINC000451500596    0.1200
     51 H51       -12.3427   -1.6232   61.3816 H       1  ZINC000451500596    0.1000
     52 H52       -10.9635   -2.1032   62.4096 H       1  ZINC000451500596    0.0700
@<TRIPOS>BOND
     1     1     2    1
     2     1    29    1
     3     1    30    1
     4     1    31    1
     5     2     3    2
     6     2     4    2
     7     2     5   am
     8     5     6    1
     9     5    32    1
    10     6     7    1
    11     6    33    1
    12     6    34    1
    13     7     8    1
    14     7    12    1
    15     7     9    1
    16     9    10    1
    17     9    35    1
    18     9    36    1
    19    10    11    1
    20    10    37    1
    21    10    38    1
    22    11    12    1
    23    11    39    1
    24    11    40    1
    25    12    13    1
    26    12    14    1
    27    14    15   am
    28    14    41    1
    29    15    16    2
    30    15    17    1
    31    17    18    1
    32    17    28    1
    33    17    19    1
    34    19    20    1
    35    19    42    1
    36    19    43    1
    37    20    21    1
    38    20    44    1
    39    20    45    1
    40    21    22    1
    41    21    28    1
    42    22    27   ar
    43    22    23   ar
    44    23    24   ar
    45    23    46    1
    46    24    25   ar
    47    24    47    1
    48    25    26   ar
    49    25    48    1
    50    26    27   ar
    51    26    49    1
    52    27    50    1
    53    28    51    1
    54    28    52    1
@<TRIPOS>SUBSTRUCTURE
     1 ZINC000451500596        1 TEMP              0 ****  ****    0 ROOT


##########                                Name:    ZINC000031496632
##########                DOCK_Rotatable_Bonds:                   8
##########                         Heavy_Atoms:                  30
##########                    Molecular_Weight:             423.539
##########                DOCK_Rotatable_Bonds:                   8
##########                       Formal_Charge:          -0.0100009
##########                     HBond_Acceptors:                   8
##########                        HBond_Donors:                   1
##########                         Heavy_Atoms:                  30
##########                          Grid_Score:          -27.869001
##########                     Grid_vdw_energy:          -26.688833
##########                      Grid_es_energy:           -1.180168
##########           Internal_energy_repulsive:            9.377233

@<TRIPOS>MOLECULE
ZINC000031496632
 55 58 1 0 0
SMALL
USER_CHARGES


@<TRIPOS>ATOM
      1 C1        -13.3707    0.3149   46.3931 C.3     1  ZINC000031496632   -0.1600
      2 C2        -14.3437    1.2724   47.0840 C.3     1  ZINC000031496632    0.1600
      3 C3        -15.7344    1.1211   46.4643 C.3     1  ZINC000031496632   -0.1600
      4 N4        -14.4087    0.9556   48.5128 N.pl3   1  ZINC000031496632   -0.3900
      5 N5        -15.4182    0.2126   49.1326 N.2     1  ZINC000031496632   -0.2300
      6 C6        -15.1805    0.1121   50.4090 C.2     1  ZINC000031496632    0.0800
      7 C7        -13.9384    0.8252   50.6860 C.ar    1  ZINC000031496632   -0.2100
      8 C8        -13.1886    1.0647   51.8433 C.ar    1  ZINC000031496632    0.0100
      9 C9        -12.0245    1.8074   51.7225 C.ar    1  ZINC000031496632    0.0500
     10 N10       -11.2366    2.0758   52.8494 N.am    1  ZINC000031496632   -0.6600
     11 C11       -10.6881    1.0605   53.5455 C.2     1  ZINC000031496632    0.5500
     12 O12       -10.8770   -0.0888   53.1955 O.2     1  ZINC000031496632   -0.4900
     13 C13        -9.8593    1.3429   54.7309 C.ar    1  ZINC000031496632   -0.1300
     14 C14        -8.4692    1.4208   54.6144 C.ar    1  ZINC000031496632   -0.0600
     15 C15        -7.7000    1.6849   55.7265 C.ar    1  ZINC000031496632   -0.1400
     16 C16        -8.2972    1.8739   56.9629 C.ar    1  ZINC000031496632   -0.0600
     17 C17        -9.6684    1.7998   57.0954 C.ar    1  ZINC000031496632   -0.1500
     18 C18       -10.4622    1.5409   55.9841 C.ar    1  ZINC000031496632   -0.0600
     19 S19       -12.2139    1.4462   56.1494 S.3     1  ZINC000031496632    0.0900
     20 C20       -12.4314    0.2943   57.5337 C.3     1  ZINC000031496632   -0.2000
     21 C21       -11.8272   -1.0394   57.1771 C.2     1  ZINC000031496632    0.5500
     22 O22       -11.9990   -1.5068   56.0712 O.2     1  ZINC000031496632   -0.5200
     23 N23       -11.0960   -1.7129   58.0872 N.am    1  ZINC000031496632   -0.6200
     24 C24       -10.8167   -1.2687   59.4605 C.3     1  ZINC000031496632    0.1000
     25 C25        -9.9250   -2.3434   60.1173 C.3     1  ZINC000031496632   -0.1300
     26 C26        -9.2852   -3.0571   58.8973 C.3     1  ZINC000031496632   -0.1300
     27 C27       -10.4491   -3.0202   57.8724 C.3     1  ZINC000031496632    0.1000
     28 C28       -11.6453    2.2842   50.4688 C.ar    1  ZINC000031496632    0.1600
     29 N29       -12.3673    2.0458   49.3964 N.ar    1  ZINC000031496632   -0.4900
     30 C30       -13.4869    1.3355   49.4525 C.ar    1  ZINC000031496632    0.3000
     31 H31       -13.3224    0.5504   45.3299 H       1  ZINC000031496632    0.0800
     32 H32       -12.3799    0.4225   46.8345 H       1  ZINC000031496632    0.0600
     33 H33       -13.7166   -0.7107   46.5225 H       1  ZINC000031496632    0.0700
     34 H34       -13.9978    2.2979   46.9544 H       1  ZINC000031496632    0.1100
     35 H35       -15.6861    1.3567   45.4012 H       1  ZINC000031496632    0.0800
     36 H36       -16.0803    0.0956   46.5938 H       1  ZINC000031496632    0.0700
     37 H37       -16.4276    1.8032   46.9564 H       1  ZINC000031496632    0.0600
     38 H38       -15.7930   -0.4056   51.1325 H       1  ZINC000031496632    0.2000
     39 H39       -13.5077    0.6826   52.8017 H       1  ZINC000031496632    0.1500
     40 H40       -11.0859    2.9924   53.1286 H       1  ZINC000031496632    0.4100
     41 H41        -7.9981    1.2737   53.6538 H       1  ZINC000031496632    0.1300
     42 H42        -6.6255    1.7449   55.6344 H       1  ZINC000031496632    0.1300
     43 H43        -7.6850    2.0802   57.8285 H       1  ZINC000031496632    0.1300
     44 H44       -10.1258    1.9477   58.0625 H       1  ZINC000031496632    0.1300
     45 H45       -11.9357    0.6926   58.4190 H       1  ZINC000031496632    0.1100
     46 H46       -13.4946    0.1686   57.7381 H       1  ZINC000031496632    0.1100
     47 H47       -10.2927   -0.3131   59.4416 H       1  ZINC000031496632    0.0700
     48 H48       -11.7498   -1.1712   60.0155 H       1  ZINC000031496632    0.0700
     49 H49        -9.1585   -1.8811   60.7393 H       1  ZINC000031496632    0.0900
     50 H50       -10.5272   -3.0406   60.6999 H       1  ZINC000031496632    0.0800
     51 H51        -8.4199   -2.5046   58.5310 H       1  ZINC000031496632    0.0800
     52 H52        -9.0156   -4.0843   59.1428 H       1  ZINC000031496632    0.0900
     53 H53       -11.1501   -3.8324   58.0649 H       1  ZINC000031496632    0.0700
     54 H54       -10.0616   -3.0854   56.8558 H       1  ZINC000031496632    0.0800
     55 H55       -10.7380    2.8628   50.3765 H       1  ZINC000031496632    0.1700
@<TRIPOS>BOND
     1     1     2    1
     2     1    31    1
     3     1    32    1
     4     1    33    1
     5     2     3    1
     6     2     4    1
     7     2    34    1
     8     3    35    1
     9     3    36    1
    10     3    37    1
    11     4    30    1
    12     4     5    1
    13     5     6    2
    14     6     7    1
    15     6    38    1
    16     7    30   ar
    17     7     8   ar
    18     8     9   ar
    19     8    39    1
    20     9    10    1
    21     9    28   ar
    22    10    11   am
    23    10    40    1
    24    11    12    2
    25    11    13    1
    26    13    18   ar
    27    13    14   ar
    28    14    15   ar
    29    14    41    1
    30    15    16   ar
    31    15    42    1
    32    16    17   ar
    33    16    43    1
    34    17    18   ar
    35    17    44    1
    36    18    19    1
    37    19    20    1
    38    20    21    1
    39    20    45    1
    40    20    46    1
    41    21    22    2
    42    21    23   am
    43    23    27    1
    44    23    24    1
    45    24    25    1
    46    24    47    1
    47    24    48    1
    48    25    26    1
    49    25    49    1
    50    25    50    1
    51    26    27    1
    52    26    51    1
    53    26    52    1
    54    27    53    1
    55    27    54    1
    56    28    29   ar
    57    28    55    1
    58    29    30   ar
@<TRIPOS>SUBSTRUCTURE
     1 ZINC000031496632        1 TEMP              0 ****  ****    0 ROOT


##########                                Name:    ZINC000867639366
##########                DOCK_Rotatable_Bonds:                   6
##########                         Heavy_Atoms:                  25
##########                    Molecular_Weight:             388.509
##########                DOCK_Rotatable_Bonds:                   6
##########                       Formal_Charge:          0.00999961
##########                     HBond_Acceptors:                   9
##########                        HBond_Donors:                   1
##########                         Heavy_Atoms:                  25
##########                          Grid_Score:          -27.865856
##########                     Grid_vdw_energy:          -26.254456
##########                      Grid_es_energy:           -1.611400
##########           Internal_energy_repulsive:           41.486660

@<TRIPOS>MOLECULE
ZINC000867639366
 49 51 1 0 0
SMALL
USER_CHARGES


@<TRIPOS>ATOM
      1 C1         -8.0753    2.8195   52.4244 C.3     1  ZINC000867639366    0.0300
      2 O2         -9.4190    2.5159   52.8040 O.3     1  ZINC000867639366   -0.3800
      3 C3         -9.7416    1.1253   52.7381 C.3     1  ZINC000867639366    0.0800
      4 H4         -9.2409    0.6760   51.8804 H       1  ZINC000867639366    0.0800
      5 C5        -11.2557    0.9585   52.5906 C.3     1  ZINC000867639366   -0.1400
      6 C6        -11.9613    1.6185   53.7775 C.3     1  ZINC000867639366   -0.1200
      7 C7        -11.5230    0.9302   55.0740 C.3     1  ZINC000867639366    0.1500
      8 H8        -11.8689   -0.1034   55.0740 H       1  ZINC000867639366    0.0800
      9 C9        -12.1180    1.6700   56.2739 C.3     1  ZINC000867639366   -0.1900
     10 N10       -10.0561    0.9588   55.1521 N.am    1  ZINC000867639366   -0.9800
     11 S11        -9.2941    1.5732   56.4878 S.o2    1  ZINC000867639366    2.6900
     12 O12        -7.9076    1.3159   56.3127 O.2     1  ZINC000867639366   -0.9500
     13 O13        -9.8235    2.8766   56.6878 O.2     1  ZINC000867639366   -0.9400
     14 C14        -9.8081    0.6099   57.8708 C.ar    1  ZINC000867639366   -0.6300
     15 C15       -10.0190    1.2161   59.0951 C.ar    1  ZINC000867639366   -0.0500
     16 C16       -10.4223    0.4603   60.1802 C.ar    1  ZINC000867639366   -0.0400
     17 C17       -10.6150   -0.9014   60.0407 C.ar    1  ZINC000867639366   -0.6300
     18 S18       -11.1284   -1.8647   61.4238 S.o2    1  ZINC000867639366    2.7000
     19 O19       -12.1858   -1.1456   62.0434 O.2     1  ZINC000867639366   -0.9400
     20 O20       -11.2663   -3.1989   60.9544 O.2     1  ZINC000867639366   -0.9500
     21 N21        -9.8744   -1.8768   62.5053 N.am    1  ZINC000867639366   -1.0800
     22 C22        -9.3815   -0.6179   63.0695 C.3     1  ZINC000867639366    0.0800
     23 C23       -10.1823    0.0043   64.2152 C.3     1  ZINC000867639366   -0.1800
     24 C24        -8.8287   -0.6514   64.4958 C.3     1  ZINC000867639366   -0.1900
     25 C25       -10.4053   -1.5073   58.8160 C.ar    1  ZINC000867639366   -0.0400
     26 C26       -10.0058   -0.7509   57.7300 C.ar    1  ZINC000867639366   -0.0400
     27 C27        -9.2775    0.4313   54.0224 C.3     1  ZINC000867639366    0.1200
     28 H28        -7.3841    2.2973   53.0860 H       1  ZINC000867639366    0.0400
     29 H29        -7.9067    2.4987   51.3964 H       1  ZINC000867639366    0.0400
     30 H30        -7.9100    3.8942   52.5014 H       1  ZINC000867639366    0.0900
     31 H31       -11.5845    1.4302   51.6646 H       1  ZINC000867639366    0.0700
     32 H32       -11.5034   -0.1026   52.5652 H       1  ZINC000867639366    0.0700
     33 H33       -11.6944    2.6746   53.8181 H       1  ZINC000867639366    0.0800
     34 H34       -13.0404    1.5198   53.6600 H       1  ZINC000867639366    0.0800
     35 H35       -13.1999    1.5374   56.2826 H       1  ZINC000867639366    0.0700
     36 H36       -11.6953    1.2681   57.1946 H       1  ZINC000867639366    0.0600
     37 H37       -11.8827    2.7317   56.1993 H       1  ZINC000867639366    0.1000
     38 H38        -9.8684    2.2800   59.2041 H       1  ZINC000867639366    0.1600
     39 H39       -10.5864    0.9338   61.1369 H       1  ZINC000867639366    0.1500
     40 H40        -9.4662   -2.7175   62.7653 H       1  ZINC000867639366    0.4200
     41 H41        -8.9057    0.0604   62.3611 H       1  ZINC000867639366    0.1400
     42 H42       -10.2337    1.0921   64.2605 H       1  ZINC000867639366    0.1100
     43 H43       -11.0759   -0.5231   64.5491 H       1  ZINC000867639366    0.1000
     44 H44        -8.8317   -1.6101   65.0143 H       1  ZINC000867639366    0.1000
     45 H45        -7.9896    0.0051   64.7258 H       1  ZINC000867639366    0.1000
     46 H46       -10.5563   -2.5710   58.7070 H       1  ZINC000867639366    0.1500
     47 H47        -9.8421   -1.2243   56.7733 H       1  ZINC000867639366    0.1500
     48 H48        -9.4402   -0.6431   53.9366 H       1  ZINC000867639366    0.0900
     49 H49        -8.2182    0.6308   54.1839 H       1  ZINC000867639366    0.1000
@<TRIPOS>BOND
     1     1     2    1
     2     1    28    1
     3     1    29    1
     4     1    30    1
     5     2     3    1
     6     3     4    1
     7     3    27    1
     8     3     5    1
     9     5     6    1
    10     5    31    1
    11     5    32    1
    12     6     7    1
    13     6    33    1
    14     6    34    1
    15     7     8    1
    16     7     9    1
    17     7    10    1
    18     9    35    1
    19     9    36    1
    20     9    37    1
    21    10    11   am
    22    10    27    1
    23    11    12    2
    24    11    13    2
    25    11    14    1
    26    14    26   ar
    27    14    15   ar
    28    15    16   ar
    29    15    38    1
    30    16    17   ar
    31    16    39    1
    32    17    18    1
    33    17    25   ar
    34    18    19    2
    35    18    20    2
    36    18    21   am
    37    21    22    1
    38    21    40    1
    39    22    24    1
    40    22    23    1
    41    22    41    1
    42    23    24    1
    43    23    42    1
    44    23    43    1
    45    24    44    1
    46    24    45    1
    47    25    26   ar
    48    25    46    1
    49    26    47    1
    50    27    48    1
    51    27    49    1
@<TRIPOS>SUBSTRUCTURE
     1 ZINC000867639366        1 TEMP              0 ****  ****    0 ROOT


##########                                Name:    ZINC000225856071
##########                DOCK_Rotatable_Bonds:                   6
##########                         Heavy_Atoms:                  29
##########                    Molecular_Weight:             409.549
##########                DOCK_Rotatable_Bonds:                   6
##########                       Formal_Charge:         -0.00999989
##########                     HBond_Acceptors:                   5
##########                        HBond_Donors:                   1
##########                         Heavy_Atoms:                  29
##########                          Grid_Score:          -27.855421
##########                     Grid_vdw_energy:          -26.738258
##########                      Grid_es_energy:           -1.117163
##########           Internal_energy_repulsive:           27.644180

@<TRIPOS>MOLECULE
ZINC000225856071
 56 58 1 0 0
SMALL
USER_CHARGES


@<TRIPOS>ATOM
      1 C1         -9.7740   -0.3590   63.1116 C.3     1  ZINC000225856071    0.0200
      2 O2        -10.9484   -1.1020   62.7794 O.3     1  ZINC000225856071   -0.3100
      3 C3        -11.1604   -1.3648   61.4629 C.ar    1  ZINC000225856071    0.1900
      4 C4        -10.1710   -1.9784   60.7090 C.ar    1  ZINC000225856071   -0.2300
      5 C5        -10.3892   -2.2450   59.3709 C.ar    1  ZINC000225856071    0.0700
      6 C6         -9.3146   -2.9117   58.5512 C.3     1  ZINC000225856071   -0.1800
      7 C7        -11.5924   -1.9011   58.7835 C.ar    1  ZINC000225856071   -0.7100
      8 S8        -11.8677   -2.2428   57.0771 S.o2    1  ZINC000225856071    2.7000
      9 O9        -11.2364   -1.1968   56.3515 O.2     1  ZINC000225856071   -0.9600
     10 O10       -11.5580   -3.6167   56.8881 O.2     1  ZINC000225856071   -0.9500
     11 N11       -13.4934   -2.0878   56.8022 N.am    1  ZINC000225856071   -1.1100
     12 C12       -14.4429   -2.9359   57.5271 C.3     1  ZINC000225856071    0.2400
     13 H13       -13.9974   -3.2578   58.4684 H       1  ZINC000225856071    0.1100
     14 C14       -14.7776   -4.1439   56.6907 C.ar    1  ZINC000225856071   -0.1000
     15 C15       -14.2254   -5.3730   56.9994 C.ar    1  ZINC000225856071   -0.1000
     16 C16       -14.5324   -6.4811   56.2322 C.ar    1  ZINC000225856071   -0.1200
     17 C17       -15.3922   -6.3602   55.1564 C.ar    1  ZINC000225856071   -0.1100
     18 C18       -15.9452   -5.1314   54.8482 C.ar    1  ZINC000225856071   -0.1100
     19 C19       -15.6415   -4.0241   55.6181 C.ar    1  ZINC000225856071   -0.1000
     20 C20       -15.7009   -2.1551   57.8079 C.ar    1  ZINC000225856071   -0.0900
     21 C21       -15.9560   -0.9844   57.1188 C.ar    1  ZINC000225856071   -0.1000
     22 C22       -17.1102   -0.2681   57.3764 C.ar    1  ZINC000225856071   -0.1200
     23 C23       -18.0090   -0.7229   58.3227 C.ar    1  ZINC000225856071   -0.0800
     24 C24       -19.2668    0.0582   58.6038 C.3     1  ZINC000225856071   -0.1200
     25 C25       -17.7545   -1.8946   59.0111 C.ar    1  ZINC000225856071   -0.1200
     26 C26       -16.6027   -2.6127   58.7508 C.ar    1  ZINC000225856071   -0.0600
     27 C27       -16.3252   -3.8899   59.5010 C.3     1  ZINC000225856071   -0.1300
     28 C28       -12.5806   -1.2896   59.5332 C.ar    1  ZINC000225856071    0.0200
     29 C29       -12.3690   -1.0249   60.8723 C.ar    1  ZINC000225856071   -0.1400
     30 C30       -13.4466   -0.3589   61.6887 C.3     1  ZINC000225856071   -0.1100
     31 H31        -9.8083    0.6136   62.6207 H       1  ZINC000225856071    0.0600
     32 H32        -9.7259   -0.2192   64.1916 H       1  ZINC000225856071    0.1000
     33 H33        -8.8919   -0.9044   62.7762 H       1  ZINC000225856071    0.0600
     34 H34        -9.2308   -2.2474   61.1674 H       1  ZINC000225856071    0.1400
     35 H35        -9.4446   -3.9931   58.5924 H       1  ZINC000225856071    0.0900
     36 H36        -9.3863   -2.5763   57.5166 H       1  ZINC000225856071    0.1000
     37 H37        -8.3358   -2.6479   58.9516 H       1  ZINC000225856071    0.0800
     38 H38       -13.8169   -1.4356   56.1614 H       1  ZINC000225856071    0.4200
     39 H39       -13.5537   -5.4673   57.8399 H       1  ZINC000225856071    0.1200
     40 H40       -14.1003   -7.4412   56.4730 H       1  ZINC000225856071    0.1200
     41 H41       -15.6315   -7.2258   54.5566 H       1  ZINC000225856071    0.1200
     42 H42       -16.6165   -5.0369   54.0076 H       1  ZINC000225856071    0.1200
     43 H43       -16.0735   -3.0640   55.3773 H       1  ZINC000225856071    0.1200
     44 H44       -15.2535   -0.6291   56.3793 H       1  ZINC000225856071    0.1200
     45 H45       -17.3090    0.6470   56.8384 H       1  ZINC000225856071    0.1200
     46 H46       -20.0639   -0.2877   57.9458 H       1  ZINC000225856071    0.0700
     47 H47       -19.5626   -0.0910   59.6423 H       1  ZINC000225856071    0.0700
     48 H48       -19.0835    1.1180   58.4268 H       1  ZINC000225856071    0.0700
     49 H49       -18.4571   -2.2501   59.7502 H       1  ZINC000225856071    0.1200
     50 H50       -16.7547   -4.7313   58.9573 H       1  ZINC000225856071    0.0800
     51 H51       -15.2483   -4.0295   59.5950 H       1  ZINC000225856071    0.0700
     52 H52       -16.7721   -3.8326   60.4936 H       1  ZINC000225856071    0.0700
     53 H53       -13.5199   -1.0221   59.0722 H       1  ZINC000225856071    0.1500
     54 H54       -14.0916   -1.1196   62.1285 H       1  ZINC000225856071    0.0700
     55 H55       -12.9885    0.2319   62.4820 H       1  ZINC000225856071    0.0700
     56 H56       -14.0389    0.2926   61.0462 H       1  ZINC000225856071    0.0700
@<TRIPOS>BOND
     1     1     2    1
     2     1    31    1
     3     1    32    1
     4     1    33    1
     5     2     3    1
     6     3    29   ar
     7     3     4   ar
     8     4     5   ar
     9     4    34    1
    10     5     6    1
    11     5     7   ar
    12     6    35    1
    13     6    36    1
    14     6    37    1
    15     7     8    1
    16     7    28   ar
    17     8     9    2
    18     8    10    2
    19     8    11   am
    20    11    12    1
    21    11    38    1
    22    12    13    1
    23    12    14    1
    24    12    20    1
    25    14    19   ar
    26    14    15   ar
    27    15    16   ar
    28    15    39    1
    29    16    17   ar
    30    16    40    1
    31    17    18   ar
    32    17    41    1
    33    18    19   ar
    34    18    42    1
    35    19    43    1
    36    20    26   ar
    37    20    21   ar
    38    21    22   ar
    39    21    44    1
    40    22    23   ar
    41    22    45    1
    42    23    24    1
    43    23    25   ar
    44    24    46    1
    45    24    47    1
    46    24    48    1
    47    25    26   ar
    48    25    49    1
    49    26    27    1
    50    27    50    1
    51    27    51    1
    52    27    52    1
    53    28    29   ar
    54    28    53    1
    55    29    30    1
    56    30    54    1
    57    30    55    1
    58    30    56    1
@<TRIPOS>SUBSTRUCTURE
     1 ZINC000225856071        1 TEMP              0 ****  ****    0 ROOT


##########                                Name:    ZINC000446721380
##########                DOCK_Rotatable_Bonds:                   8
##########                         Heavy_Atoms:                  26
##########                    Molecular_Weight:             419.318
##########                DOCK_Rotatable_Bonds:                   8
##########                       Formal_Charge:           0.0199992
##########                     HBond_Acceptors:                   5
##########                        HBond_Donors:                   2
##########                         Heavy_Atoms:                  26
##########                          Grid_Score:          -27.854090
##########                     Grid_vdw_energy:          -24.566557
##########                      Grid_es_energy:           -3.287533
##########           Internal_energy_repulsive:          162.640060

@<TRIPOS>MOLECULE
ZINC000446721380
 49 51 1 0 0
SMALL
USER_CHARGES


@<TRIPOS>ATOM
      1 C1        -10.4837   -4.2746   58.2565 C.3     1  ZINC000446721380   -0.1200
      2 C2        -10.4199   -3.3352   59.4332 C.ar    1  ZINC000446721380   -0.0300
      3 C3         -9.2001   -2.8437   59.8592 C.ar    1  ZINC000446721380   -0.1600
      4 C4         -9.1383   -1.9815   60.9386 C.ar    1  ZINC000446721380   -0.0500
      5 C5        -10.2958   -1.6092   61.5939 C.ar    1  ZINC000446721380   -0.1500
      6 C6        -10.2277   -0.6692   62.7698 C.3     1  ZINC000446721380    0.1900
      7 N7        -10.0998    0.7080   62.2873 N.am    1  ZINC000446721380   -0.7300
      8 C8        -11.0163    1.6323   62.6370 C.2     1  ZINC000446721380    0.7100
      9 O9        -11.9482    1.3235   63.3542 O.2     1  ZINC000446721380   -0.5700
     10 N10       -10.8995    2.8991   62.1917 N.am    1  ZINC000446721380   -0.6900
     11 C11       -11.8513    3.8592   62.5550 C.ar    1  ZINC000446721380    0.2000
     12 C12       -12.9121    3.5098   63.3792 C.ar    1  ZINC000446721380   -0.1200
     13 C13       -13.8497    4.4597   63.7363 C.ar    1  ZINC000446721380   -0.0800
     14 C14       -13.7326    5.7573   63.2739 C.ar    1  ZINC000446721380   -0.1300
     15 C15       -12.6772    6.1092   62.4522 C.ar    1  ZINC000446721380   -0.0700
     16 C16       -11.7330    5.1655   62.0958 C.ar    1  ZINC000446721380   -0.1300
     17 Br17      -10.2899    5.6472   60.9728 Br      1  ZINC000446721380   -0.0500
     18 C18       -11.5214   -2.1012   61.1682 C.ar    1  ZINC000446721380    0.1500
     19 O19       -12.6617   -1.7361   61.8110 O.3     1  ZINC000446721380   -0.3100
     20 C20       -13.7285   -1.2331   61.0043 C.3     1  ZINC000446721380    0.0700
     21 C21       -14.9584   -2.1282   61.1691 C.3     1  ZINC000446721380   -0.1200
     22 H22       -14.7579   -3.1260   60.7789 H       1  ZINC000446721380    0.1000
     23 C23       -16.1826   -1.5035   60.4564 C.3     1  ZINC000446721380   -0.1500
     24 C24       -17.3254   -1.7891   61.4638 C.3     1  ZINC000446721380    0.0500
     25 O25       -16.6908   -1.6201   62.7497 O.3     1  ZINC000446721380   -0.3800
     26 C26       -15.3770   -2.2023   62.6503 C.3     1  ZINC000446721380    0.0500
     27 C27       -11.5812   -2.9615   60.0818 C.ar    1  ZINC000446721380   -0.2100
     28 H28       -10.5957   -3.6990   57.3377 H       1  ZINC000446721380    0.0800
     29 H29        -9.5655   -4.8601   58.2089 H       1  ZINC000446721380    0.0700
     30 H30       -11.3360   -4.9442   58.3719 H       1  ZINC000446721380    0.0700
     31 H31        -8.2938   -3.1338   59.3484 H       1  ZINC000446721380    0.1300
     32 H32        -8.1840   -1.5991   61.2697 H       1  ZINC000446721380    0.1300
     33 H33       -11.1372   -0.7634   63.3633 H       1  ZINC000446721380    0.0800
     34 H34        -9.3643   -0.9201   63.3860 H       1  ZINC000446721380    0.0800
     35 H35        -9.3556    0.9547   61.7161 H       1  ZINC000446721380    0.4000
     36 H36       -10.1559    3.1455   61.6196 H       1  ZINC000446721380    0.4100
     37 H37       -13.0048    2.4964   63.7407 H       1  ZINC000446721380    0.1500
     38 H38       -14.6755    4.1881   64.3773 H       1  ZINC000446721380    0.1300
     39 H39       -14.4669    6.4978   63.5546 H       1  ZINC000446721380    0.1300
     40 H40       -12.5889    7.1235   62.0920 H       1  ZINC000446721380    0.1400
     41 H41       -13.9734   -0.2180   61.3175 H       1  ZINC000446721380    0.0700
     42 H42       -13.4214   -1.2265   59.9585 H       1  ZINC000446721380    0.0700
     43 H43       -16.0461   -0.4311   60.3167 H       1  ZINC000446721380    0.0800
     44 H44       -16.3718   -1.9975   59.5034 H       1  ZINC000446721380    0.0900
     45 H45       -18.1359   -1.0712   61.3385 H       1  ZINC000446721380    0.1000
     46 H46       -17.6931   -2.8087   61.3483 H       1  ZINC000446721380    0.0600
     47 H47       -15.4062   -3.2413   62.9787 H       1  ZINC000446721380    0.0600
     48 H48       -14.6740   -1.6376   63.2627 H       1  ZINC000446721380    0.0900
     49 H49       -12.5340   -3.3457   59.7485 H       1  ZINC000446721380    0.1300
@<TRIPOS>BOND
     1     1     2    1
     2     1    28    1
     3     1    29    1
     4     1    30    1
     5     2    27   ar
     6     2     3   ar
     7     3     4   ar
     8     3    31    1
     9     4     5   ar
    10     4    32    1
    11     5     6    1
    12     5    18   ar
    13     6     7    1
    14     6    33    1
    15     6    34    1
    16     7     8   am
    17     7    35    1
    18     8     9    2
    19     8    10   am
    20    10    11    1
    21    10    36    1
    22    11    16   ar
    23    11    12   ar
    24    12    13   ar
    25    12    37    1
    26    13    14   ar
    27    13    38    1
    28    14    15   ar
    29    14    39    1
    30    15    16   ar
    31    15    40    1
    32    16    17    1
    33    18    19    1
    34    18    27   ar
    35    19    20    1
    36    20    21    1
    37    20    41    1
    38    20    42    1
    39    21    22    1
    40    21    26    1
    41    21    23    1
    42    23    24    1
    43    23    43    1
    44    23    44    1
    45    24    25    1
    46    24    45    1
    47    24    46    1
    48    25    26    1
    49    26    47    1
    50    26    48    1
    51    27    49    1
@<TRIPOS>SUBSTRUCTURE
     1 ZINC000446721380        1 TEMP              0 ****  ****    0 ROOT


##########                                Name:    ZINC000588570917
##########                DOCK_Rotatable_Bonds:                   7
##########                         Heavy_Atoms:                  25
##########                    Molecular_Weight:             366.481
##########                DOCK_Rotatable_Bonds:                   7
##########                       Formal_Charge:          -0.0100006
##########                     HBond_Acceptors:                   7
##########                        HBond_Donors:                   1
##########                         Heavy_Atoms:                  25
##########                          Grid_Score:          -27.853065
##########                     Grid_vdw_energy:          -26.731100
##########                      Grid_es_energy:           -1.121964
##########           Internal_energy_repulsive:           16.206593

@<TRIPOS>MOLECULE
ZINC000588570917
 51 52 1 0 0
SMALL
USER_CHARGES


@<TRIPOS>ATOM
      1 C1        -19.4523   -5.8859   53.1169 C.3     1  ZINC000588570917   -0.1300
      2 C2        -18.1765   -5.3987   53.7540 C.2     1  ZINC000588570917   -0.0500
      3 C3        -17.0277   -6.0202   53.5020 C.2     1  ZINC000588570917   -0.2000
      4 C4        -17.0023   -7.2126   52.5808 C.3     1  ZINC000588570917   -0.0900
      5 C5        -17.2198   -8.4901   53.3942 C.3     1  ZINC000588570917   -0.1500
      6 C6        -15.7824   -5.5437   54.1224 C.2     1  ZINC000588570917    0.5600
      7 O7        -14.7258   -6.0855   53.8591 O.2     1  ZINC000588570917   -0.5100
      8 N8        -15.8119   -4.5067   54.9827 N.am    1  ZINC000588570917   -0.6800
      9 C9        -14.6279   -4.0536   55.5726 C.ar    1  ZINC000588570917    0.2100
     10 C10       -14.1427   -2.7866   55.2754 C.ar    1  ZINC000588570917   -0.1700
     11 C11       -12.9733   -2.3419   55.8603 C.ar    1  ZINC000588570917    0.0000
     12 C12       -12.2855   -3.1567   56.7409 C.ar    1  ZINC000588570917   -0.7000
     13 S13       -10.7939   -2.5855   57.4849 S.o2    1  ZINC000588570917    2.6900
     14 O14       -10.0996   -3.7422   57.9313 O.2     1  ZINC000588570917   -0.9500
     15 O15       -10.2321   -1.6412   56.5839 O.2     1  ZINC000588570917   -0.9500
     16 N16       -11.2167   -1.7400   58.8446 N.am    1  ZINC000588570917   -1.0000
     17 C17       -10.7382   -2.1539   60.1732 C.3     1  ZINC000588570917    0.0900
     18 C18       -10.1302   -0.9315   60.8704 C.3     1  ZINC000588570917    0.0700
     19 H19        -9.2194   -0.6321   60.3518 H       1  ZINC000588570917    0.0700
     20 C20        -9.7993   -1.2832   62.3222 C.3     1  ZINC000588570917   -0.1500
     21 O21       -11.0717    0.1438   60.8413 O.3     1  ZINC000588570917   -0.3700
     22 C22       -11.4081    0.5917   59.5260 C.3     1  ZINC000588570917    0.0800
     23 H23       -12.0927    1.4372   59.5933 H       1  ZINC000588570917    0.1200
     24 C24       -10.1364    1.0210   58.7915 C.3     1  ZINC000588570917   -0.1900
     25 C25       -12.0770   -0.5493   58.7593 C.3     1  ZINC000588570917    0.0900
     26 C26       -12.7661   -4.4185   57.0394 C.ar    1  ZINC000588570917    0.0000
     27 C27       -13.9375   -4.8673   56.4617 C.ar    1  ZINC000588570917   -0.1400
     28 H28       -20.2823   -5.2571   53.4390 H       1  ZINC000588570917    0.0600
     29 H29       -19.3587   -5.8364   52.0321 H       1  ZINC000588570917    0.0800
     30 H30       -19.6388   -6.9166   53.4189 H       1  ZINC000588570917    0.0800
     31 H31       -18.1948   -4.5450   54.4153 H       1  ZINC000588570917    0.1300
     32 H32       -17.7944   -7.1153   51.8385 H       1  ZINC000588570917    0.0700
     33 H33       -16.0367   -7.2624   52.0776 H       1  ZINC000588570917    0.0800
     34 H34       -18.1854   -8.4403   53.8975 H       1  ZINC000588570917    0.0500
     35 H35       -17.2014   -9.3526   52.7280 H       1  ZINC000588570917    0.0600
     36 H36       -16.4277   -8.5874   54.1367 H       1  ZINC000588570917    0.0600
     37 H37       -16.6546   -4.0746   55.1926 H       1  ZINC000588570917    0.4100
     38 H38       -14.6791   -2.1499   54.5874 H       1  ZINC000588570917    0.1400
     39 H39       -12.5953   -1.3569   55.6293 H       1  ZINC000588570917    0.1400
     40 H40       -11.5728   -2.5347   60.7618 H       1  ZINC000588570917    0.0900
     41 H41        -9.9802   -2.9297   60.0652 H       1  ZINC000588570917    0.1000
     42 H42        -9.0844   -2.1058   62.3429 H       1  ZINC000588570917    0.0700
     43 H43        -9.3669   -0.4137   62.8173 H       1  ZINC000588570917    0.0700
     44 H44       -10.7107   -1.5809   62.8408 H       1  ZINC000588570917    0.0700
     45 H45        -9.4531    0.1745   58.7230 H       1  ZINC000588570917    0.0600
     46 H46       -10.3936    1.3623   57.7888 H       1  ZINC000588570917    0.0700
     47 H47        -9.6565    1.8318   59.3394 H       1  ZINC000588570917    0.0700
     48 H48       -12.2080   -0.2632   57.7157 H       1  ZINC000588570917    0.1000
     49 H49       -13.0471   -0.7714   59.2041 H       1  ZINC000588570917    0.0900
     50 H50       -12.2267   -5.0523   57.7275 H       1  ZINC000588570917    0.1400
     51 H51       -14.3125   -5.8528   56.6955 H       1  ZINC000588570917    0.1500
@<TRIPOS>BOND
     1     1     2    1
     2     1    28    1
     3     1    29    1
     4     1    30    1
     5     2     3    2
     6     2    31    1
     7     3     4    1
     8     3     6    1
     9     4     5    1
    10     4    32    1
    11     4    33    1
    12     5    34    1
    13     5    35    1
    14     5    36    1
    15     6     7    2
    16     6     8   am
    17     8     9    1
    18     8    37    1
    19     9    27   ar
    20     9    10   ar
    21    10    11   ar
    22    10    38    1
    23    11    12   ar
    24    11    39    1
    25    12    13    1
    26    12    26   ar
    27    13    14    2
    28    13    15    2
    29    13    16   am
    30    16    25    1
    31    16    17    1
    32    17    18    1
    33    17    40    1
    34    17    41    1
    35    18    19    1
    36    18    20    1
    37    18    21    1
    38    20    42    1
    39    20    43    1
    40    20    44    1
    41    21    22    1
    42    22    23    1
    43    22    24    1
    44    22    25    1
    45    24    45    1
    46    24    46    1
    47    24    47    1
    48    25    48    1
    49    25    49    1
    50    26    27   ar
    51    26    50    1
    52    27    51    1
@<TRIPOS>SUBSTRUCTURE
     1 ZINC000588570917        1 TEMP              0 ****  ****    0 ROOT


##########                                Name:    ZINC000281092425
##########                DOCK_Rotatable_Bonds:                   8
##########                         Heavy_Atoms:                  23
##########                    Molecular_Weight:             332.304
##########                DOCK_Rotatable_Bonds:                   8
##########                       Formal_Charge:         2.98023e-08
##########                     HBond_Acceptors:                   9
##########                        HBond_Donors:                   2
##########                         Heavy_Atoms:                  23
##########                          Grid_Score:          -27.847681
##########                     Grid_vdw_energy:          -24.260456
##########                      Grid_es_energy:           -3.587225
##########           Internal_energy_repulsive:           19.809259

@<TRIPOS>MOLECULE
ZINC000281092425
 41 42 1 0 0
SMALL
USER_CHARGES


@<TRIPOS>ATOM
      1 O1        -10.4920   -3.4858   58.4138 O.2     1  ZINC000281092425   -0.1800
      2 N2        -11.3535   -2.9606   59.0961 N.pl3   1  ZINC000281092425    0.0400
      3 O3        -12.5280   -3.0920   58.8015 O.2     1  ZINC000281092425   -0.1500
      4 C4        -10.9735   -2.1677   60.2867 C.ar    1  ZINC000281092425   -0.1200
      5 C5         -9.6408   -2.0192   60.6201 C.ar    1  ZINC000281092425    0.0200
      6 C6         -9.2820   -1.2799   61.7307 C.ar    1  ZINC000281092425   -0.2200
      7 C7        -10.2613   -0.6833   62.5150 C.ar    1  ZINC000281092425    0.3000
      8 N8         -9.8989    0.0645   63.6376 N.pl3   1  ZINC000281092425   -0.7200
      9 C9         -8.9809   -0.5013   64.6293 C.3     1  ZINC000281092425    0.1200
     10 C10        -9.2559    0.1284   65.9964 C.3     1  ZINC000281092425   -0.0900
     11 H11       -10.3168    0.0401   66.2303 H       1  ZINC000281092425    0.0900
     12 C12        -8.4358   -0.5960   67.0658 C.3     1  ZINC000281092425    0.0800
     13 O13        -8.8472   -1.9627   67.1370 O.3     1  ZINC000281092425   -0.5700
     14 C14        -8.8618    1.6064   65.9657 C.3     1  ZINC000281092425   -0.1100
     15 H15        -7.8917    1.7376   65.4860 H       1  ZINC000281092425    0.0900
     16 C16        -9.9502    2.4541   65.2524 C.3     1  ZINC000281092425   -0.1600
     17 C17        -9.7526    3.8273   65.9423 C.3     1  ZINC000281092425    0.0500
     18 O18        -9.4263    3.5181   67.3065 O.3     1  ZINC000281092425   -0.3900
     19 C19        -8.8558    2.2031   67.3895 C.3     1  ZINC000281092425    0.0700
     20 C20       -11.6007   -0.8313   62.1812 C.ar    1  ZINC000281092425   -0.2800
     21 C21       -11.9561   -1.5696   61.0637 C.ar    1  ZINC000281092425    0.2300
     22 O22       -13.2664   -1.7158   60.7339 O.3     1  ZINC000281092425   -0.2900
     23 C23       -14.0856   -2.4538   61.6428 C.3     1  ZINC000281092425    0.4100
     24 F24       -14.5981   -1.5892   62.6160 F       1  ZINC000281092425   -0.1900
     25 F25       -15.1420   -3.0464   60.9427 F       1  ZINC000281092425   -0.1900
     26 H26        -8.8782   -2.4823   60.0115 H       1  ZINC000281092425    0.1600
     27 H27        -8.2397   -1.1659   61.9895 H       1  ZINC000281092425    0.1500
     28 H28       -10.2549    0.9583   63.7607 H       1  ZINC000281092425    0.4100
     29 H29        -9.1301   -1.5793   64.6892 H       1  ZINC000281092425    0.0800
     30 H30        -7.9528   -0.2926   64.3334 H       1  ZINC000281092425    0.0800
     31 H31        -7.3781   -0.5479   66.8071 H       1  ZINC000281092425    0.0500
     32 H32        -8.5956   -0.1176   68.0322 H       1  ZINC000281092425    0.0500
     33 H33        -9.7928   -2.0807   67.3011 H       1  ZINC000281092425    0.3800
     34 H34        -9.7571    2.5209   64.1816 H       1  ZINC000281092425    0.0800
     35 H35       -10.9467    2.0571   65.4459 H       1  ZINC000281092425    0.0800
     36 H36        -8.9344    4.3727   65.4719 H       1  ZINC000281092425    0.0600
     37 H37       -10.6726    4.4099   65.8958 H       1  ZINC000281092425    0.0900
     38 H38        -9.4574    1.5801   68.0513 H       1  ZINC000281092425    0.0800
     39 H39        -7.8348    2.2661   67.7660 H       1  ZINC000281092425    0.0700
     40 H40       -12.3641   -0.3685   62.7891 H       1  ZINC000281092425    0.1500
     41 H41       -13.4883   -3.2286   62.1234 H       1  ZINC000281092425    0.1900
@<TRIPOS>BOND
     1     1     2    2
     2     2     3    2
     3     2     4    1
     4     4    21   ar
     5     4     5   ar
     6     5     6   ar
     7     5    26    1
     8     6     7   ar
     9     6    27    1
    10     7     8    1
    11     7    20   ar
    12     8     9    1
    13     8    28    1
    14     9    10    1
    15     9    29    1
    16     9    30    1
    17    10    11    1
    18    10    12    1
    19    10    14    1
    20    12    13    1
    21    12    31    1
    22    12    32    1
    23    13    33    1
    24    14    15    1
    25    14    19    1
    26    14    16    1
    27    16    17    1
    28    16    34    1
    29    16    35    1
    30    17    18    1
    31    17    36    1
    32    17    37    1
    33    18    19    1
    34    19    38    1
    35    19    39    1
    36    20    21   ar
    37    20    40    1
    38    21    22    1
    39    22    23    1
    40    23    24    1
    41    23    25    1
    42    23    41    1
@<TRIPOS>SUBSTRUCTURE
     1 ZINC000281092425        1 TEMP              0 ****  ****    0 ROOT


##########                                Name:    ZINC001371344729
##########                DOCK_Rotatable_Bonds:                   9
##########                         Heavy_Atoms:                  24
##########                    Molecular_Weight:             332.399
##########                DOCK_Rotatable_Bonds:                   9
##########                       Formal_Charge:          0.00999983
##########                     HBond_Acceptors:                   6
##########                        HBond_Donors:                   1
##########                         Heavy_Atoms:                  24
##########                          Grid_Score:          -27.833441
##########                     Grid_vdw_energy:          -26.689180
##########                      Grid_es_energy:           -1.144260
##########           Internal_energy_repulsive:           29.485020

@<TRIPOS>MOLECULE
ZINC001371344729
 48 49 1 0 0
SMALL
USER_CHARGES


@<TRIPOS>ATOM
      1 C1        -11.9448    0.1182   58.3208 C.3     1  ZINC001371344729   -0.1800
      2 C2        -10.6186   -0.5355   57.9277 C.3     1  ZINC001371344729    0.1000
      3 N3        -10.8729   -1.8805   57.4057 N.am    1  ZINC001371344729   -0.6100
      4 C4        -10.4578   -2.9611   58.0962 C.2     1  ZINC001371344729    0.5100
      5 O5        -10.6696   -4.0746   57.6648 O.2     1  ZINC001371344729   -0.5200
      6 C6         -9.7304   -2.7855   59.4043 C.3     1  ZINC001371344729   -0.0600
      7 C7        -10.6994   -2.3166   60.4589 C.2     1  ZINC001371344729   -0.0100
      8 C8        -10.4156   -1.4763   61.4703 C.2     1  ZINC001371344729   -0.1600
      9 C9         -9.0828   -0.8340   61.7570 C.3     1  ZINC001371344729   -0.0800
     10 C10       -11.6059   -1.3163   62.2161 C.2     1  ZINC001371344729   -0.2100
     11 C11       -12.5484   -2.0608   61.6105 C.2     1  ZINC001371344729   -0.0300
     12 O12       -11.9927   -2.6673   60.5488 O.3     1  ZINC001371344729   -0.1700
     13 C13       -11.5785   -2.0511   56.1332 C.3     1  ZINC001371344729    0.1200
     14 H14       -11.2484   -2.9736   55.6555 H       1  ZINC001371344729    0.1100
     15 C15       -11.2722   -0.8645   55.2172 C.3     1  ZINC001371344729   -0.1600
     16 C16       -13.0850   -2.1210   56.3907 C.3     1  ZINC001371344729    0.1100
     17 N17       -13.6530   -3.2573   55.6609 N.am    1  ZINC001371344729   -0.7200
     18 C18       -14.3192   -4.2211   56.3271 C.2     1  ZINC001371344729    0.5900
     19 O19       -14.4499   -4.1468   57.5340 O.2     1  ZINC001371344729   -0.5300
     20 C20       -14.8891   -5.3649   55.5932 C.2     1  ZINC001371344729   -0.2300
     21 C21       -15.3279   -6.5453   56.1177 C.2     1  ZINC001371344729    0.0200
     22 O22       -15.7717   -7.3124   55.1172 O.3     1  ZINC001371344729   -0.1700
     23 C23       -15.6363   -6.6866   53.9376 C.2     1  ZINC001371344729   -0.0100
     24 C24       -16.0273   -7.2543   52.5975 C.3     1  ZINC001371344729   -0.0800
     25 C25       -15.0975   -5.4750   54.1420 C.2     1  ZINC001371344729   -0.1600
     26 H26       -12.4329   -0.4830   59.0879 H       1  ZINC001371344729    0.0700
     27 H27       -11.7556    1.1189   58.7092 H       1  ZINC001371344729    0.0700
     28 H28       -12.5909    0.1844   57.4454 H       1  ZINC001371344729    0.0600
     29 H29        -9.9726   -0.6018   58.8032 H       1  ZINC001371344729    0.0900
     30 H30       -10.1305    0.0657   57.1606 H       1  ZINC001371344729    0.0800
     31 H31        -8.9389   -2.0460   59.2836 H       1  ZINC001371344729    0.1100
     32 H32        -9.2950   -3.7374   59.7085 H       1  ZINC001371344729    0.1200
     33 H33        -9.0195    0.1204   61.2343 H       1  ZINC001371344729    0.0700
     34 H34        -8.9828   -0.6681   62.8296 H       1  ZINC001371344729    0.0700
     35 H35        -8.2822   -1.4897   61.4144 H       1  ZINC001371344729    0.0600
     36 H36       -11.7345   -0.7102   63.1008 H       1  ZINC001371344729    0.1500
     37 H37       -13.5762   -2.1586   61.9274 H       1  ZINC001371344729    0.2000
     38 H38       -10.1989   -0.8147   55.0337 H       1  ZINC001371344729    0.0700
     39 H39       -11.7971   -0.9914   54.2704 H       1  ZINC001371344729    0.0700
     40 H40       -11.6023    0.0579   55.6950 H       1  ZINC001371344729    0.0700
     41 H41       -13.2656   -2.2480   57.4582 H       1  ZINC001371344729    0.0800
     42 H42       -13.5551   -1.1986   56.0499 H       1  ZINC001371344729    0.0800
     43 H43       -13.5498   -3.3159   54.6982 H       1  ZINC001371344729    0.4000
     44 H44       -15.3201   -6.8135   57.1639 H       1  ZINC001371344729    0.2100
     45 H45       -15.1810   -7.7919   52.1697 H       1  ZINC001371344729    0.0800
     46 H46       -16.8663   -7.9386   52.7236 H       1  ZINC001371344729    0.0800
     47 H47       -16.3174   -6.4430   51.9299 H       1  ZINC001371344729    0.0900
     48 H48       -14.8646   -4.7321   53.3934 H       1  ZINC001371344729    0.1600
@<TRIPOS>BOND
     1     1     2    1
     2     1    26    1
     3     1    27    1
     4     1    28    1
     5     2     3    1
     6     2    29    1
     7     2    30    1
     8     3     4   am
     9     3    13    1
    10     4     5    2
    11     4     6    1
    12     6     7    1
    13     6    31    1
    14     6    32    1
    15     7    12    1
    16     7     8    2
    17     8     9    1
    18     8    10    1
    19     9    33    1
    20     9    34    1
    21     9    35    1
    22    10    11    2
    23    10    36    1
    24    11    12    1
    25    11    37    1
    26    13    14    1
    27    13    15    1
    28    13    16    1
    29    15    38    1
    30    15    39    1
    31    15    40    1
    32    16    17    1
    33    16    41    1
    34    16    42    1
    35    17    18   am
    36    17    43    1
    37    18    19    2
    38    18    20    1
    39    20    25    1
    40    20    21    2
    41    21    22    1
    42    21    44    1
    43    22    23    1
    44    23    24    1
    45    23    25    2
    46    24    45    1
    47    24    46    1
    48    24    47    1
    49    25    48    1
@<TRIPOS>SUBSTRUCTURE
     1 ZINC001371344729        1 TEMP              0 ****  ****    0 ROOT


##########                                Name:    ZINC000543020509
##########                DOCK_Rotatable_Bonds:                   5
##########                         Heavy_Atoms:                  26
##########                    Molecular_Weight:              366.81
##########                DOCK_Rotatable_Bonds:                   5
##########                       Formal_Charge:               -0.02
##########                     HBond_Acceptors:                   8
##########                        HBond_Donors:                   1
##########                         Heavy_Atoms:                  26
##########                          Grid_Score:          -27.827511
##########                     Grid_vdw_energy:          -26.532421
##########                      Grid_es_energy:           -1.295090
##########           Internal_energy_repulsive:            9.942385

@<TRIPOS>MOLECULE
ZINC000543020509
 41 43 1 0 0
SMALL
USER_CHARGES


@<TRIPOS>ATOM
      1 C1        -16.1867   -2.1322   54.1966 C.3     1  ZINC000543020509    0.0800
      2 N2        -16.5263   -3.5549   54.2795 N.pl3   1  ZINC000543020509   -0.6200
      3 C3        -17.7209   -4.0636   53.6009 C.3     1  ZINC000543020509    0.0900
      4 C4        -15.7139   -4.4233   55.0030 C.ar    1  ZINC000543020509    0.2500
      5 C5        -15.8843   -5.8037   54.9117 C.ar    1  ZINC000543020509   -0.2200
      6 C6        -15.0589   -6.6366   55.6443 C.ar    1  ZINC000543020509    0.1400
      7 N7        -14.1186   -6.1448   56.4231 N.ar    1  ZINC000543020509   -0.5000
      8 C8        -13.9198   -4.8363   56.5412 C.ar    1  ZINC000543020509    0.1100
      9 C9        -12.8472   -4.3345   57.4312 C.2     1  ZINC000543020509    0.5900
     10 O10       -12.1665   -5.1177   58.0639 O.2     1  ZINC000543020509   -0.5000
     11 N11       -12.6263   -3.0094   57.5395 N.am    1  ZINC000543020509   -0.6200
     12 C12       -11.6118   -2.5354   58.3790 C.2     1  ZINC000543020509    0.3200
     13 N13       -11.7855   -1.8497   59.4847 N.2     1  ZINC000543020509   -0.3100
     14 N14       -10.5253   -1.5684   60.0280 N.pl3   1  ZINC000543020509   -0.3300
     15 C15       -10.2778   -0.8572   61.2047 C.ar    1  ZINC000543020509    0.2200
     16 C16        -9.8850   -1.5272   62.3540 C.ar    1  ZINC000543020509   -0.1300
     17 C17        -9.6404   -0.8229   63.5168 C.ar    1  ZINC000543020509   -0.0500
     18 C18        -9.7850    0.5550   63.5454 C.ar    1  ZINC000543020509   -0.0600
     19 Cl19       -9.4741    1.4263   65.0144 Cl      1  ZINC000543020509   -0.0500
     20 C20       -10.1747    1.2376   62.4110 C.ar    1  ZINC000543020509   -0.0400
     21 C21       -10.4198    0.5383   61.2276 C.ar    1  ZINC000543020509   -0.0200
     22 C22       -10.8244    1.2404   60.0469 C.1     1  ZINC000543020509    0.2500
     23 N23       -11.1454    1.7974   59.1103 N.1     1  ZINC000543020509   -0.3800
     24 C24        -9.5864   -2.1100   59.2087 C.2     1  ZINC000543020509    0.0700
     25 C25       -10.2315   -2.7164   58.1871 C.2     1  ZINC000543020509   -0.2400
     26 C26       -14.7053   -3.9341   55.8329 C.ar    1  ZINC000543020509   -0.1800
     27 H27       -16.6595   -1.5972   55.0202 H       1  ZINC000543020509    0.0600
     28 H28       -15.1051   -2.0125   54.2590 H       1  ZINC000543020509    0.0700
     29 H29       -16.5429   -1.7283   53.2489 H       1  ZINC000543020509    0.0700
     30 H30       -18.2259   -3.2434   53.0906 H       1  ZINC000543020509    0.0800
     31 H31       -17.4304   -4.8206   52.8725 H       1  ZINC000543020509    0.0600
     32 H32       -18.3952   -4.5052   54.3346 H       1  ZINC000543020509    0.0600
     33 H33       -16.6529   -6.2181   54.2761 H       1  ZINC000543020509    0.1400
     34 H34       -15.1878   -7.7066   55.5768 H       1  ZINC000543020509    0.1700
     35 H35       -13.1703   -2.3843   57.0354 H       1  ZINC000543020509    0.4300
     36 H36        -9.7704   -2.6010   62.3396 H       1  ZINC000543020509    0.1500
     37 H37        -9.3351   -1.3493   64.4090 H       1  ZINC000543020509    0.1500
     38 H38       -10.2861    2.3115   62.4376 H       1  ZINC000543020509    0.1500
     39 H39        -8.5166   -2.0673   59.3505 H       1  ZINC000543020509    0.1900
     40 H40        -9.7678   -3.2415   57.3651 H       1  ZINC000543020509    0.1800
     41 H41       -14.5421   -2.8709   55.9297 H       1  ZINC000543020509    0.1500
@<TRIPOS>BOND
     1     1     2    1
     2     1    27    1
     3     1    28    1
     4     1    29    1
     5     2     3    1
     6     2     4    1
     7     3    30    1
     8     3    31    1
     9     3    32    1
    10     4    26   ar
    11     4     5   ar
    12     5     6   ar
    13     5    33    1
    14     6     7   ar
    15     6    34    1
    16     7     8   ar
    17     8     9    1
    18     8    26   ar
    19     9    10    2
    20     9    11   am
    21    11    12    1
    22    11    35    1
    23    12    25    1
    24    12    13    2
    25    13    14    1
    26    14    15    1
    27    14    24    1
    28    15    21   ar
    29    15    16   ar
    30    16    17   ar
    31    16    36    1
    32    17    18   ar
    33    17    37    1
    34    18    19    1
    35    18    20   ar
    36    20    21   ar
    37    20    38    1
    38    21    22    1
    39    22    23    3
    40    24    25    2
    41    24    39    1
    42    25    40    1
    43    26    41    1
@<TRIPOS>SUBSTRUCTURE
     1 ZINC000543020509        1 TEMP              0 ****  ****    0 ROOT


##########                                Name:    ZINC000952280524
##########                DOCK_Rotatable_Bonds:                   9
##########                         Heavy_Atoms:                  25
##########                    Molecular_Weight:             348.486
##########                DOCK_Rotatable_Bonds:                   9
##########                       Formal_Charge:          -0.0100004
##########                     HBond_Acceptors:                   5
##########                        HBond_Donors:                   1
##########                         Heavy_Atoms:                  25
##########                          Grid_Score:          -27.819057
##########                     Grid_vdw_energy:          -27.125486
##########                      Grid_es_energy:           -0.693571
##########           Internal_energy_repulsive:           24.050535

@<TRIPOS>MOLECULE
ZINC000952280524
 57 59 1 0 0
SMALL
USER_CHARGES


@<TRIPOS>ATOM
      1 C1        -15.7829   -2.8908   54.9886 C.3     1  ZINC000952280524   -0.1800
      2 C2        -15.1491   -2.0810   56.1215 C.3     1  ZINC000952280524    0.1400
      3 C3        -13.8358   -1.4649   55.6353 C.3     1  ZINC000952280524   -0.1900
      4 O4        -16.0436   -1.0410   56.5218 O.3     1  ZINC000952280524   -0.5500
      5 C5        -14.8710   -3.0008   57.3121 C.3     1  ZINC000952280524   -0.1200
      6 C6        -13.5397   -3.6808   57.1214 C.2     1  ZINC000952280524    0.5300
      7 O7        -13.4062   -4.5211   56.2571 O.2     1  ZINC000952280524   -0.5100
      8 N8        -12.4974   -3.3550   57.9113 N.am    1  ZINC000952280524   -0.6300
      9 C9        -11.1494   -3.9370   57.8347 C.3     1  ZINC000952280524    0.1000
     10 C10       -10.3031   -3.2806   58.9457 C.3     1  ZINC000952280524   -0.1300
     11 C11       -11.3753   -2.7790   59.9488 C.3     1  ZINC000952280524   -0.1000
     12 H12       -11.6964   -3.5826   60.6117 H       1  ZINC000952280524    0.0900
     13 C13       -10.8586   -1.5834   60.7515 C.3     1  ZINC000952280524   -0.0700
     14 C14       -12.0029   -0.9906   61.5768 C.3     1  ZINC000952280524   -0.1300
     15 C15       -11.4903    0.2272   62.3524 C.3     1  ZINC000952280524    0.1100
     16 N16       -10.3202   -0.1751   63.1447 N.am    1  ZINC000952280524   -0.6100
     17 C17       -10.2760    0.0585   64.4714 C.2     1  ZINC000952280524    0.5500
     18 O18       -11.2103    0.6072   65.0237 O.2     1  ZINC000952280524   -0.5500
     19 C19        -9.0975   -0.3501   65.2512 C.2     1  ZINC000952280524   -0.2200
     20 C20        -8.1839    0.5522   65.5976 C.2     1  ZINC000952280524   -0.0300
     21 C21        -6.9774    0.1339   66.3981 C.3     1  ZINC000952280524   -0.1500
     22 C22        -5.6378    0.7855   66.0493 C.3     1  ZINC000952280524   -0.1700
     23 C23        -6.3618    1.1695   67.3412 C.3     1  ZINC000952280524   -0.1600
     24 C24        -9.1995   -0.8374   62.4634 C.3     1  ZINC000952280524    0.1000
     25 C25        -9.7378   -2.0431   61.6867 C.3     1  ZINC000952280524   -0.1300
     26 C26       -12.5183   -2.3516   58.9912 C.3     1  ZINC000952280524    0.1100
     27 H27       -15.0670   -3.6276   54.6241 H       1  ZINC000952280524    0.0700
     28 H28       -16.6719   -3.4007   55.3597 H       1  ZINC000952280524    0.0600
     29 H29       -16.0610   -2.2211   54.1748 H       1  ZINC000952280524    0.0600
     30 H30       -14.0339   -0.8097   54.7871 H       1  ZINC000952280524    0.0600
     31 H31       -13.3843   -0.8880   56.4424 H       1  ZINC000952280524    0.0800
     32 H32       -13.1534   -2.2582   55.3299 H       1  ZINC000952280524    0.0600
     33 H33       -16.8986   -1.3593   56.8423 H       1  ZINC000952280524    0.3700
     34 H34       -14.8501   -2.4119   58.2290 H       1  ZINC000952280524    0.1000
     35 H35       -15.6566   -3.7532   57.3813 H       1  ZINC000952280524    0.1000
     36 H36       -11.2010   -5.0139   57.9953 H       1  ZINC000952280524    0.0700
     37 H37       -10.7095   -3.7261   56.8600 H       1  ZINC000952280524    0.0700
     38 H38        -9.6482   -4.0141   59.4159 H       1  ZINC000952280524    0.0800
     39 H39        -9.7262   -2.4455   58.5484 H       1  ZINC000952280524    0.0800
     40 H40       -10.4738   -0.8263   60.0683 H       1  ZINC000952280524    0.0800
     41 H41       -12.8106   -0.6847   60.9119 H       1  ZINC000952280524    0.0800
     42 H42       -12.3719   -1.7393   62.2778 H       1  ZINC000952280524    0.0700
     43 H43       -11.2052    1.0126   61.6524 H       1  ZINC000952280524    0.0700
     44 H44       -12.2731    0.5933   63.0167 H       1  ZINC000952280524    0.0900
     45 H45        -8.9742   -1.3827   65.5424 H       1  ZINC000952280524    0.1300
     46 H46        -8.3065    1.5846   65.3052 H       1  ZINC000952280524    0.1300
     47 H47        -6.9628   -0.9084   66.7165 H       1  ZINC000952280524    0.1200
     48 H48        -4.7414    0.1717   66.1381 H       1  ZINC000952280524    0.1000
     49 H49        -5.6290    1.5165   65.2409 H       1  ZINC000952280524    0.1000
     50 H50        -6.8294    2.1533   67.3828 H       1  ZINC000952280524    0.1000
     51 H51        -5.9418    0.8084   68.2801 H       1  ZINC000952280524    0.1000
     52 H52        -8.7275   -0.1388   61.7726 H       1  ZINC000952280524    0.0700
     53 H53        -8.4708   -1.1737   63.2010 H       1  ZINC000952280524    0.0900
     54 H54       -10.1281   -2.7820   62.3865 H       1  ZINC000952280524    0.0700
     55 H55        -8.9332   -2.4865   61.0999 H       1  ZINC000952280524    0.0800
     56 H56       -12.3274   -1.3548   58.5937 H       1  ZINC000952280524    0.0700
     57 H57       -13.4769   -2.3769   59.5094 H       1  ZINC000952280524    0.0800
@<TRIPOS>BOND
     1     1     2    1
     2     1    27    1
     3     1    28    1
     4     1    29    1
     5     2     3    1
     6     2     4    1
     7     2     5    1
     8     3    30    1
     9     3    31    1
    10     3    32    1
    11     4    33    1
    12     5     6    1
    13     5    34    1
    14     5    35    1
    15     6     7    2
    16     6     8   am
    17     8    26    1
    18     8     9    1
    19     9    10    1
    20     9    36    1
    21     9    37    1
    22    10    11    1
    23    10    38    1
    24    10    39    1
    25    11    12    1
    26    11    13    1
    27    11    26    1
    28    13    25    1
    29    13    14    1
    30    13    40    1
    31    14    15    1
    32    14    41    1
    33    14    42    1
    34    15    16    1
    35    15    43    1
    36    15    44    1
    37    16    17   am
    38    16    24    1
    39    17    18    2
    40    17    19    1
    41    19    20    2
    42    19    45    1
    43    20    21    1
    44    20    46    1
    45    21    23    1
    46    21    22    1
    47    21    47    1
    48    22    23    1
    49    22    48    1
    50    22    49    1
    51    23    50    1
    52    23    51    1
    53    24    25    1
    54    24    52    1
    55    24    53    1
    56    25    54    1
    57    25    55    1
    58    26    56    1
    59    26    57    1
@<TRIPOS>SUBSTRUCTURE
     1 ZINC000952280524        1 TEMP              0 ****  ****    0 ROOT


##########                                Name:    ZINC001291841503
##########                DOCK_Rotatable_Bonds:                   7
##########                         Heavy_Atoms:                  28
##########                    Molecular_Weight:             397.544
##########                DOCK_Rotatable_Bonds:                   7
##########                       Formal_Charge:         -0.00999964
##########                     HBond_Acceptors:                   7
##########                        HBond_Donors:                   0
##########                         Heavy_Atoms:                  28
##########                          Grid_Score:          -27.806786
##########                     Grid_vdw_energy:          -26.648705
##########                      Grid_es_energy:           -1.158081
##########           Internal_energy_repulsive:           21.371269

@<TRIPOS>MOLECULE
ZINC001291841503
 55 58 1 0 0
SMALL
USER_CHARGES


@<TRIPOS>ATOM
      1 C1         -9.4712   -1.8553   59.6334 C.3     1  ZINC001291841503   -0.1500
      2 C2        -10.8439   -2.1528   60.2403 C.3     1  ZINC001291841503   -0.1100
      3 C3        -11.7083   -0.8915   60.1894 C.3     1  ZINC001291841503    0.0500
      4 H4        -11.5317   -0.3677   59.2499 H       1  ZINC001291841503    0.0900
      5 C5        -13.1626   -1.2749   60.2850 C.2     1  ZINC001291841503    0.2000
      6 N6        -13.9106   -1.2070   61.3497 N.2     1  ZINC001291841503   -0.2700
      7 N7        -15.1001   -1.6117   61.0791 N.2     1  ZINC001291841503   -0.3100
      8 C8        -15.1754   -1.9621   59.8169 C.2     1  ZINC001291841503    0.3600
      9 N9        -16.2963   -2.4477   59.1621 N.3     1  ZINC001291841503   -0.4500
     10 C10       -16.6685   -3.7751   59.6695 C.3     1  ZINC001291841503    0.0200
     11 C11       -17.4194   -1.5075   59.2734 C.3     1  ZINC001291841503    0.0700
     12 H12       -17.7658   -1.4399   60.3047 H       1  ZINC001291841503    0.0800
     13 C13       -17.0240   -0.1073   58.7303 C.3     1  ZINC001291841503   -0.1400
     14 C14       -18.4029    0.4304   58.2715 C.3     1  ZINC001291841503    0.0500
     15 O15       -19.0958   -0.7132   57.7467 O.3     1  ZINC001291841503   -0.3800
     16 C16       -18.5730   -1.9157   58.3320 C.3     1  ZINC001291841503    0.0600
     17 N17       -13.9433   -1.7528   59.2692 N.pl3   1  ZINC001291841503   -0.4700
     18 C18       -13.5382   -1.9982   57.8829 C.3     1  ZINC001291841503    0.1900
     19 C19       -13.6699   -3.4672   57.5736 C.2     1  ZINC001291841503   -0.2700
     20 C20       -12.7468   -4.4054   57.8055 C.2     1  ZINC001291841503    0.0800
     21 N21       -13.1015   -5.6221   57.4445 N.2     1  ZINC001291841503   -0.4800
     22 C22       -14.2723   -5.7626   56.9209 C.2     1  ZINC001291841503    0.0500
     23 C23       -14.8543   -7.0695   56.4473 C.3     1  ZINC001291841503   -0.0800
     24 S24       -15.0709   -4.2525   56.8490 S.3     1  ZINC001291841503    0.1800
     25 C25       -11.3496    0.0103   61.3422 C.ar    1  ZINC001291841503   -0.0900
     26 C26       -11.3945   -0.4721   62.6369 C.ar    1  ZINC001291841503   -0.0900
     27 C27       -11.0655    0.3551   63.6945 C.ar    1  ZINC001291841503   -0.1200
     28 C28       -10.6911    1.6644   63.4574 C.ar    1  ZINC001291841503   -0.1200
     29 C29       -10.6453    2.1465   62.1626 C.ar    1  ZINC001291841503   -0.1200
     30 C30       -10.9702    1.3181   61.1047 C.ar    1  ZINC001291841503   -0.1100
     31 H31        -9.5928   -1.5398   58.5972 H       1  ZINC001291841503    0.0500
     32 H32        -8.9877   -1.0603   60.2010 H       1  ZINC001291841503    0.0500
     33 H33        -8.8554   -2.7539   59.6698 H       1  ZINC001291841503    0.0600
     34 H34       -11.3275   -2.9478   59.6728 H       1  ZINC001291841503    0.0800
     35 H35       -10.7223   -2.4684   61.2765 H       1  ZINC001291841503    0.0800
     36 H36       -16.9777   -3.6922   60.7115 H       1  ZINC001291841503    0.0500
     37 H37       -17.4923   -4.1727   59.0767 H       1  ZINC001291841503    0.0900
     38 H38       -15.8120   -4.4452   59.5969 H       1  ZINC001291841503    0.0700
     39 H39       -16.6022    0.5154   59.5192 H       1  ZINC001291841503    0.0900
     40 H40       -16.3359   -0.1921   57.8893 H       1  ZINC001291841503    0.0800
     41 H41       -18.9476    0.8467   59.1190 H       1  ZINC001291841503    0.0700
     42 H42       -18.2756    1.1848   57.4951 H       1  ZINC001291841503    0.0900
     43 H43       -18.1933   -2.5730   57.5498 H       1  ZINC001291841503    0.0800
     44 H44       -19.3558   -2.4234   58.8955 H       1  ZINC001291841503    0.0700
     45 H45       -14.1782   -1.4266   57.2108 H       1  ZINC001291841503    0.1100
     46 H46       -12.5016   -1.6899   57.7472 H       1  ZINC001291841503    0.1100
     47 H47       -11.7887   -4.1844   58.2524 H       1  ZINC001291841503    0.1700
     48 H48       -15.3925   -7.5458   57.2669 H       1  ZINC001291841503    0.0900
     49 H49       -15.5408   -6.8836   55.6213 H       1  ZINC001291841503    0.0800
     50 H50       -14.0505   -7.7247   56.1112 H       1  ZINC001291841503    0.0900
     51 H51       -11.6870   -1.4951   62.8222 H       1  ZINC001291841503    0.1300
     52 H52       -11.1012   -0.0217   64.7060 H       1  ZINC001291841503    0.1200
     53 H53       -10.4347    2.3109   64.2836 H       1  ZINC001291841503    0.1200
     54 H54       -10.3531    3.1696   61.9774 H       1  ZINC001291841503    0.1200
     55 H55       -10.9344    1.6948   60.0931 H       1  ZINC001291841503    0.1200
@<TRIPOS>BOND
     1     1     2    1
     2     1    31    1
     3     1    32    1
     4     1    33    1
     5     2     3    1
     6     2    34    1
     7     2    35    1
     8     3     4    1
     9     3     5    1
    10     3    25    1
    11     5    17    1
    12     5     6    2
    13     6     7    1
    14     7     8    2
    15     8     9    1
    16     8    17    1
    17     9    10    1
    18     9    11    1
    19    10    36    1
    20    10    37    1
    21    10    38    1
    22    11    12    1
    23    11    16    1
    24    11    13    1
    25    13    14    1
    26    13    39    1
    27    13    40    1
    28    14    15    1
    29    14    41    1
    30    14    42    1
    31    15    16    1
    32    16    43    1
    33    16    44    1
    34    17    18    1
    35    18    19    1
    36    18    45    1
    37    18    46    1
    38    19    24    1
    39    19    20    2
    40    20    21    1
    41    20    47    1
    42    21    22    2
    43    22    23    1
    44    22    24    1
    45    23    48    1
    46    23    49    1
    47    23    50    1
    48    25    30   ar
    49    25    26   ar
    50    26    27   ar
    51    26    51    1
    52    27    28   ar
    53    27    52    1
    54    28    29   ar
    55    28    53    1
    56    29    30   ar
    57    29    54    1
    58    30    55    1
@<TRIPOS>SUBSTRUCTURE
     1 ZINC001291841503        1 TEMP              0 ****  ****    0 ROOT


##########                                Name:    ZINC001023148918
##########                DOCK_Rotatable_Bonds:                   6
##########                         Heavy_Atoms:                  25
##########                    Molecular_Weight:             348.402
##########                DOCK_Rotatable_Bonds:                   6
##########                       Formal_Charge:           0.0199999
##########                     HBond_Acceptors:                   8
##########                        HBond_Donors:                   2
##########                         Heavy_Atoms:                  25
##########                          Grid_Score:          -27.799347
##########                     Grid_vdw_energy:          -25.570866
##########                      Grid_es_energy:           -2.228482
##########           Internal_energy_repulsive:           12.719074

@<TRIPOS>MOLECULE
ZINC001023148918
 49 52 1 0 0
SMALL
USER_CHARGES


@<TRIPOS>ATOM
      1 C1         -9.0773   -0.5960   64.0528 C.3     1  ZINC001023148918   -0.0700
      2 C2         -9.6196   -0.8900   62.6778 C.2     1  ZINC001023148918    0.0200
      3 N3        -10.0032   -2.0601   62.2350 N.2     1  ZINC001023148918   -0.2700
      4 N4        -10.4157   -1.9787   61.0213 N.pl3   1  ZINC001023148918   -0.2500
      5 C5        -10.9156   -3.1003   60.2224 C.3     1  ZINC001023148918    0.0800
      6 C6        -10.3173   -0.6865   60.5892 C.2     1  ZINC001023148918   -0.0400
      7 C7        -10.6858   -0.1685   59.2621 C.2     1  ZINC001023148918    0.6000
      8 O8        -11.2352   -0.8956   58.4564 O.2     1  ZINC001023148918   -0.5300
      9 N9        -10.4148    1.1117   58.9393 N.am    1  ZINC001023148918   -0.7000
     10 C10       -10.7817    1.6273   57.6180 C.3     1  ZINC001023148918    0.1500
     11 H11       -11.6239    1.0727   57.2045 H       1  ZINC001023148918    0.1200
     12 C12        -9.5695    1.5968   56.6538 C.3     1  ZINC001023148918    0.1000
     13 N13        -9.8570    2.6406   55.6531 N.am    1  ZINC001023148918   -0.6200
     14 C14        -9.3603    2.6864   54.4010 C.2     1  ZINC001023148918    0.5400
     15 O15        -9.6675    3.5957   53.6596 O.2     1  ZINC001023148918   -0.5200
     16 C16        -8.4232    1.6076   53.9224 C.3     1  ZINC001023148918   -0.1400
     17 H17        -8.6610    0.6542   54.3942 H       1  ZINC001023148918    0.1100
     18 C18        -6.9487    2.0013   54.1929 C.3     1  ZINC001023148918   -0.1400
     19 C19        -6.3377    2.0550   52.7604 C.3     1  ZINC001023148918    0.0600
     20 H20        -5.4346    2.6571   52.6598 H       1  ZINC001023148918    0.1300
     21 C21        -6.2027    0.5683   52.3141 C.3     1  ZINC001023148918   -0.1500
     22 C22        -7.6725    0.1561   52.0450 C.3     1  ZINC001023148918   -0.1500
     23 C23        -8.4722    1.4827   52.3699 C.3     1  ZINC001023148918    0.0900
     24 H24        -9.4581    1.5583   51.9111 H       1  ZINC001023148918    0.1400
     25 O25        -7.4905    2.5034   51.9747 O.3     1  ZINC001023148918   -0.3600
     26 C26       -10.7758    3.6228   56.2470 C.3     1  ZINC001023148918    0.0700
     27 C27       -11.0928    3.1461   57.6806 C.3     1  ZINC001023148918    0.0900
     28 H28       -10.4457    3.6422   58.4039 H       1  ZINC001023148918    0.0800
     29 O29       -12.4680    3.3728   57.9962 O.3     1  ZINC001023148918   -0.5500
     30 C30        -9.8077    0.0390   61.6520 C.2     1  ZINC001023148918   -0.1800
     31 H31        -9.9002   -0.3453   64.7221 H       1  ZINC001023148918    0.0800
     32 H32        -8.5545   -1.4739   64.4326 H       1  ZINC001023148918    0.0700
     33 H33        -8.3846    0.2439   63.9981 H       1  ZINC001023148918    0.0800
     34 H34       -11.9798   -3.2371   60.4141 H       1  ZINC001023148918    0.0900
     35 H35       -10.7613   -2.8898   59.1641 H       1  ZINC001023148918    0.1100
     36 H36       -10.3777   -4.0083   60.4945 H       1  ZINC001023148918    0.0900
     37 H37        -9.9767    1.6915   59.5817 H       1  ZINC001023148918    0.4100
     38 H38        -8.6508    1.8298   57.1919 H       1  ZINC001023148918    0.0800
     39 H39        -9.4917    0.6216   56.1731 H       1  ZINC001023148918    0.0900
     40 H40        -6.8917    2.9778   54.6738 H       1  ZINC001023148918    0.0800
     41 H41        -6.4509    1.2426   54.7968 H       1  ZINC001023148918    0.0900
     42 H42        -5.6071    0.4908   51.4045 H       1  ZINC001023148918    0.0800
     43 H43        -5.7718   -0.0368   53.1119 H       1  ZINC001023148918    0.0800
     44 H44        -7.8093   -0.1270   51.0013 H       1  ZINC001023148918    0.0800
     45 H45        -7.9739   -0.6543   52.7087 H       1  ZINC001023148918    0.0800
     46 H46       -10.3004    4.6032   56.2786 H       1  ZINC001023148918    0.0800
     47 H47       -11.6940    3.6724   55.6619 H       1  ZINC001023148918    0.0900
     48 H48       -12.6996    3.1704   58.9130 H       1  ZINC001023148918    0.3900
     49 H49        -9.5947    1.0974   61.6801 H       1  ZINC001023148918    0.1600
@<TRIPOS>BOND
     1     1     2    1
     2     1    31    1
     3     1    32    1
     4     1    33    1
     5     2    30    1
     6     2     3    2
     7     3     4    1
     8     4     5    1
     9     4     6    1
    10     5    34    1
    11     5    35    1
    12     5    36    1
    13     6     7    1
    14     6    30    2
    15     7     8    2
    16     7     9   am
    17     9    10    1
    18     9    37    1
    19    10    11    1
    20    10    27    1
    21    10    12    1
    22    12    13    1
    23    12    38    1
    24    12    39    1
    25    13    14   am
    26    13    26    1
    27    14    15    2
    28    14    16    1
    29    16    17    1
    30    16    23    1
    31    16    18    1
    32    18    19    1
    33    18    40    1
    34    18    41    1
    35    19    20    1
    36    19    25    1
    37    19    21    1
    38    21    22    1
    39    21    42    1
    40    21    43    1
    41    22    23    1
    42    22    44    1
    43    22    45    1
    44    23    24    1
    45    23    25    1
    46    26    27    1
    47    26    46    1
    48    26    47    1
    49    27    28    1
    50    27    29    1
    51    29    48    1
    52    30    49    1
@<TRIPOS>SUBSTRUCTURE
     1 ZINC001023148918        1 TEMP              0 ****  ****    0 ROOT


##########                                Name:    ZINC000011157684
##########                DOCK_Rotatable_Bonds:                   7
##########                         Heavy_Atoms:                  25
##########                    Molecular_Weight:             374.866
##########                DOCK_Rotatable_Bonds:                   7
##########                       Formal_Charge:           0.0400001
##########                     HBond_Acceptors:                   6
##########                        HBond_Donors:                   2
##########                         Heavy_Atoms:                  25
##########                          Grid_Score:          -27.796824
##########                     Grid_vdw_energy:          -26.949665
##########                      Grid_es_energy:           -0.847159
##########           Internal_energy_repulsive:            8.391019

@<TRIPOS>MOLECULE
ZINC000011157684
 41 43 1 0 0
SMALL
USER_CHARGES


@<TRIPOS>ATOM
      1 O1         -8.8864   -2.8932   59.1868 O.2     1  ZINC000011157684   -0.5200
      2 C2         -9.7418   -2.2596   59.7679 C.2     1  ZINC000011157684    0.5100
      3 C3         -9.3942   -1.4960   61.0198 C.3     1  ZINC000011157684    0.1000
      4 N4        -10.4667   -1.6580   62.0044 N.pl3   1  ZINC000011157684   -0.7300
      5 C5        -10.5600   -0.7786   63.0885 C.ar    1  ZINC000011157684    0.2200
      6 C6         -9.4337   -0.4864   63.8452 C.ar    1  ZINC000011157684   -0.1600
      7 C7         -9.5276    0.3828   64.9152 C.ar    1  ZINC000011157684   -0.0900
      8 C8        -10.7440    0.9619   65.2336 C.ar    1  ZINC000011157684    0.0500
      9 F9        -10.8333    1.8110   66.2806 F       1  ZINC000011157684   -0.1400
     10 C10       -11.8695    0.6726   64.4802 C.ar    1  ZINC000011157684   -0.0900
     11 C11       -11.7793   -0.1919   63.4060 C.ar    1  ZINC000011157684   -0.0900
     12 Cl12      -13.1902   -0.5545   62.4616 Cl      1  ZINC000011157684   -0.0500
     13 N13       -11.0022   -2.2338   59.2910 N.am    1  ZINC000011157684   -0.7200
     14 C14       -11.3401   -2.9760   58.0741 C.3     1  ZINC000011157684    0.2600
     15 H15       -10.6931   -3.8492   57.9895 H       1  ZINC000011157684    0.1200
     16 C16       -11.1442   -2.0874   56.8728 C.2     1  ZINC000011157684   -0.1900
     17 C17       -10.2646   -1.0880   56.7909 C.2     1  ZINC000011157684   -0.1200
     18 C18       -10.2641   -0.4089   55.5846 C.2     1  ZINC000011157684   -0.1300
     19 C19       -11.1433   -0.8568   54.6871 C.2     1  ZINC000011157684   -0.2100
     20 S20       -12.0353   -2.2143   55.3618 S.3     1  ZINC000011157684    0.1100
     21 C21       -12.7784   -3.4213   58.1404 C.ar    1  ZINC000011157684   -0.0900
     22 C22       -13.1602   -4.6141   57.5553 C.ar    1  ZINC000011157684   -0.1100
     23 C23       -14.4795   -5.0225   57.6161 C.ar    1  ZINC000011157684   -0.1100
     24 C24       -15.4167   -4.2384   58.2624 C.ar    1  ZINC000011157684   -0.1100
     25 C25       -15.0346   -3.0461   58.8483 C.ar    1  ZINC000011157684   -0.1100
     26 C26       -13.7146   -2.6397   58.7912 C.ar    1  ZINC000011157684   -0.1000
     27 H27        -8.4611   -1.8801   61.4324 H       1  ZINC000011157684    0.1000
     28 H28        -9.2775   -0.4391   60.7802 H       1  ZINC000011157684    0.1000
     29 H29       -11.1124   -2.3751   61.9047 H       1  ZINC000011157684    0.4200
     30 H30        -8.4844   -0.9383   63.5980 H       1  ZINC000011157684    0.1400
     31 H31        -8.6514    0.6103   65.5040 H       1  ZINC000011157684    0.1400
     32 H32       -12.8175    1.1259   64.7301 H       1  ZINC000011157684    0.1500
     33 H33       -11.6854   -1.7238   59.7537 H       1  ZINC000011157684    0.4000
     34 H34        -9.6033   -0.8282   57.6042 H       1  ZINC000011157684    0.1400
     35 H35        -9.6022    0.4209   55.3855 H       1  ZINC000011157684    0.1400
     36 H36       -11.2834   -0.4505   53.6963 H       1  ZINC000011157684    0.1700
     37 H37       -12.4280   -5.2266   57.0503 H       1  ZINC000011157684    0.1200
     38 H38       -14.7779   -5.9541   57.1583 H       1  ZINC000011157684    0.1300
     39 H39       -16.4476   -4.5572   58.3093 H       1  ZINC000011157684    0.1300
     40 H40       -15.7669   -2.4334   59.3529 H       1  ZINC000011157684    0.1300
     41 H41       -13.4161   -1.7082   59.2490 H       1  ZINC000011157684    0.1300
@<TRIPOS>BOND
     1     1     2    2
     2     2     3    1
     3     2    13   am
     4     3     4    1
     5     3    27    1
     6     3    28    1
     7     4     5    1
     8     4    29    1
     9     5    11   ar
    10     5     6   ar
    11     6     7   ar
    12     6    30    1
    13     7     8   ar
    14     7    31    1
    15     8     9    1
    16     8    10   ar
    17    10    11   ar
    18    10    32    1
    19    11    12    1
    20    13    14    1
    21    13    33    1
    22    14    15    1
    23    14    16    1
    24    14    21    1
    25    16    20    1
    26    16    17    2
    27    17    18    1
    28    17    34    1
    29    18    19    2
    30    18    35    1
    31    19    20    1
    32    19    36    1
    33    21    26   ar
    34    21    22   ar
    35    22    23   ar
    36    22    37    1
    37    23    24   ar
    38    23    38    1
    39    24    25   ar
    40    24    39    1
    41    25    26   ar
    42    25    40    1
    43    26    41    1
@<TRIPOS>SUBSTRUCTURE
     1 ZINC000011157684        1 TEMP              0 ****  ****    0 ROOT


##########                                Name:    ZINC001310073555
##########                DOCK_Rotatable_Bonds:                  12
##########                         Heavy_Atoms:                  27
##########                    Molecular_Weight:             380.484
##########                DOCK_Rotatable_Bonds:                  12
##########                       Formal_Charge:          0.00999888
##########                     HBond_Acceptors:                   7
##########                        HBond_Donors:                   2
##########                         Heavy_Atoms:                  27
##########                          Grid_Score:          -27.755384
##########                     Grid_vdw_energy:          -26.962782
##########                      Grid_es_energy:           -0.792602
##########           Internal_energy_repulsive:           53.717148

@<TRIPOS>MOLECULE
ZINC001310073555
 59 59 1 0 0
SMALL
USER_CHARGES


@<TRIPOS>ATOM
      1 C1        -10.6549   -3.2307   60.5374 C.3     1  ZINC001310073555   -0.1600
      2 C2        -11.5243   -2.0593   60.0761 C.3     1  ZINC001310073555   -0.1100
      3 C3        -11.0659   -1.5984   58.6911 C.3     1  ZINC001310073555   -0.0600
      4 C4         -9.6039   -1.1523   58.7600 C.3     1  ZINC001310073555   -0.1100
      5 C5         -9.2353   -0.4122   57.4727 C.3     1  ZINC001310073555   -0.1600
      6 C6        -11.1999   -2.7549   57.6985 C.3     1  ZINC001310073555    0.1600
      7 N7        -12.5427   -3.3317   57.7992 N.am    1  ZINC001310073555   -0.7400
      8 C8        -13.1150   -3.8994   56.7190 C.2     1  ZINC001310073555    0.7100
      9 O9        -12.5161   -3.9342   55.6613 O.2     1  ZINC001310073555   -0.5700
     10 N10       -14.3511   -4.4286   56.8112 N.am    1  ZINC001310073555   -0.6700
     11 C11       -14.9472   -5.0200   55.6862 C.ar    1  ZINC001310073555    0.1000
     12 C12       -14.9827   -6.4006   55.5651 C.ar    1  ZINC001310073555   -0.0400
     13 C13       -15.5696   -6.9830   54.4573 C.ar    1  ZINC001310073555   -0.2200
     14 C14       -16.1244   -6.1884   53.4654 C.ar    1  ZINC001310073555    0.1500
     15 O15       -16.7010   -6.7644   52.3770 O.3     1  ZINC001310073555   -0.3200
     16 C16       -16.4005   -6.1902   51.1034 C.3     1  ZINC001310073555    0.0300
     17 C17       -16.0920   -4.8066   53.5827 C.ar    1  ZINC001310073555   -0.2300
     18 C18       -15.5087   -4.2203   54.6933 C.ar    1  ZINC001310073555    0.1400
     19 O19       -15.4759   -2.8659   54.8102 O.3     1  ZINC001310073555   -0.3100
     20 C20       -16.7310   -2.1956   54.9420 C.3     1  ZINC001310073555    0.0300
     21 C21       -11.9222   -0.4446   58.2367 C.2     1  ZINC001310073555    0.4800
     22 O22       -11.9317   -0.1210   57.0726 O.2     1  ZINC001310073555   -0.5000
     23 O23       -12.6744    0.2237   59.1251 O.3     1  ZINC001310073555   -0.3400
     24 C24       -12.3487    1.6213   59.3457 C.3     1  ZINC001310073555    0.1200
     25 C25       -12.4953    2.3925   58.0325 C.3     1  ZINC001310073555   -0.1800
     26 C26       -13.2999    2.2080   60.3907 C.3     1  ZINC001310073555   -0.1400
     27 C27       -10.9075    1.7362   59.8464 C.3     1  ZINC001310073555   -0.1800
     28 H28       -10.9815   -3.5591   61.5241 H       1  ZINC001310073555    0.0600
     29 H29       -10.7505   -4.0547   59.8302 H       1  ZINC001310073555    0.0500
     30 H30        -9.6134   -2.9130   60.5864 H       1  ZINC001310073555    0.0600
     31 H31       -12.5658   -2.3770   60.0271 H       1  ZINC001310073555    0.0800
     32 H32       -11.4286   -1.2354   60.7833 H       1  ZINC001310073555    0.0800
     33 H33        -9.4666   -0.4879   59.6132 H       1  ZINC001310073555    0.0800
     34 H34        -8.9624   -2.0262   58.8732 H       1  ZINC001310073555    0.0800
     35 H35        -9.3726   -1.0766   56.6196 H       1  ZINC001310073555    0.0600
     36 H36        -9.8769    0.4618   57.3596 H       1  ZINC001310073555    0.0500
     37 H37        -8.1939   -0.0944   57.5218 H       1  ZINC001310073555    0.0600
     38 H38       -11.0382   -2.3852   56.6859 H       1  ZINC001310073555    0.0800
     39 H39       -10.4578   -3.5193   57.9290 H       1  ZINC001310073555    0.0800
     40 H40       -13.0200   -3.3051   58.6432 H       1  ZINC001310073555    0.4000
     41 H41       -14.8289   -4.4009   57.6548 H       1  ZINC001310073555    0.4100
     42 H42       -14.5512   -7.0214   56.3364 H       1  ZINC001310073555    0.1500
     43 H43       -15.5959   -8.0587   54.3640 H       1  ZINC001310073555    0.1300
     44 H44       -16.7228   -5.1490   51.0891 H       1  ZINC001310073555    0.0600
     45 H45       -15.3261   -6.2404   50.9267 H       1  ZINC001310073555    0.0600
     46 H46       -16.9233   -6.7432   50.3231 H       1  ZINC001310073555    0.1000
     47 H47       -16.5243   -4.1885   52.8098 H       1  ZINC001310073555    0.1400
     48 H48       -16.5625   -1.1221   55.0263 H       1  ZINC001310073555    0.1000
     49 H49       -17.3455   -2.3991   54.0650 H       1  ZINC001310073555    0.0600
     50 H50       -17.2426   -2.5543   55.8351 H       1  ZINC001310073555    0.0600
     51 H51       -13.5220    2.3107   57.6758 H       1  ZINC001310073555    0.0600
     52 H52       -12.2508    3.4418   58.1980 H       1  ZINC001310073555    0.0700
     53 H53       -11.8176    1.9746   57.2880 H       1  ZINC001310073555    0.0800
     54 H54       -13.1954    1.6585   61.3262 H       1  ZINC001310073555    0.0700
     55 H55       -13.0554    3.2572   60.5562 H       1  ZINC001310073555    0.0800
     56 H56       -14.3266    2.1262   60.0339 H       1  ZINC001310073555    0.0700
     57 H57       -10.2298    1.3183   59.1019 H       1  ZINC001310073555    0.0800
     58 H58       -10.6630    2.7854   60.0120 H       1  ZINC001310073555    0.0700
     59 H59       -10.8030    1.1868   60.7820 H       1  ZINC001310073555    0.0600
@<TRIPOS>BOND
     1     1     2    1
     2     1    28    1
     3     1    29    1
     4     1    30    1
     5     2     3    1
     6     2    31    1
     7     2    32    1
     8     3     4    1
     9     3     6    1
    10     3    21    1
    11     4     5    1
    12     4    33    1
    13     4    34    1
    14     5    35    1
    15     5    36    1
    16     5    37    1
    17     6     7    1
    18     6    38    1
    19     6    39    1
    20     7     8   am
    21     7    40    1
    22     8     9    2
    23     8    10   am
    24    10    11    1
    25    10    41    1
    26    11    18   ar
    27    11    12   ar
    28    12    13   ar
    29    12    42    1
    30    13    14   ar
    31    13    43    1
    32    14    15    1
    33    14    17   ar
    34    15    16    1
    35    16    44    1
    36    16    45    1
    37    16    46    1
    38    17    18   ar
    39    17    47    1
    40    18    19    1
    41    19    20    1
    42    20    48    1
    43    20    49    1
    44    20    50    1
    45    21    22    2
    46    21    23    1
    47    23    24    1
    48    24    25    1
    49    24    26    1
    50    24    27    1
    51    25    51    1
    52    25    52    1
    53    25    53    1
    54    26    54    1
    55    26    55    1
    56    26    56    1
    57    27    57    1
    58    27    58    1
    59    27    59    1
@<TRIPOS>SUBSTRUCTURE
     1 ZINC001310073555        1 TEMP              0 ****  ****    0 ROOT


##########                                Name:    ZINC001356153960
##########                DOCK_Rotatable_Bonds:                   8
##########                         Heavy_Atoms:                  24
##########                    Molecular_Weight:             334.366
##########                DOCK_Rotatable_Bonds:                   8
##########                       Formal_Charge:           0.0100003
##########                     HBond_Acceptors:                   6
##########                        HBond_Donors:                   1
##########                         Heavy_Atoms:                  24
##########                          Grid_Score:          -27.753677
##########                     Grid_vdw_energy:          -27.074648
##########                      Grid_es_energy:           -0.679030
##########           Internal_energy_repulsive:           13.408278

@<TRIPOS>MOLECULE
ZINC001356153960
 44 46 1 0 0
SMALL
USER_CHARGES


@<TRIPOS>ATOM
      1 O1        -12.0097    0.2107   56.3170 O.2     1  ZINC001356153960   -0.5200
      2 C2        -11.0218   -0.4728   56.1454 C.2     1  ZINC001356153960    0.5100
      3 N3        -10.4345   -0.5158   54.9330 N.am    1  ZINC001356153960   -0.7000
      4 C4        -10.9851    0.2674   53.8242 C.3     1  ZINC001356153960    0.1300
      5 C5         -9.8578    0.6571   52.8659 C.3     1  ZINC001356153960   -0.0800
      6 H6        -10.2007    1.4212   52.1683 H       1  ZINC001356153960    0.0900
      7 C7         -8.6569    1.1508   53.6389 C.2     1  ZINC001356153960   -0.1700
      8 C8         -7.5528    0.6344   53.1720 C.2     1  ZINC001356153960   -0.1600
      9 C9         -7.8332   -0.2897   52.0098 C.3     1  ZINC001356153960   -0.1000
     10 C10        -9.3504   -0.5851   52.0974 C.3     1  ZINC001356153960   -0.1200
     11 C11       -10.4601   -1.2718   57.2765 C.2     1  ZINC001356153960    0.5100
     12 O12        -9.3739   -0.9894   57.7383 O.2     1  ZINC001356153960   -0.5100
     13 N13       -11.1598   -2.3059   57.7838 N.am    1  ZINC001356153960   -0.5500
     14 C14       -10.6093   -3.0892   58.8927 C.3     1  ZINC001356153960    0.1300
     15 C15       -10.6057   -2.2523   60.1458 C.ar    1  ZINC001356153960   -0.1600
     16 C16        -9.4157   -1.7522   60.6391 C.ar    1  ZINC001356153960   -0.0300
     17 C17        -9.4117   -0.9796   61.7853 C.ar    1  ZINC001356153960   -0.1700
     18 C18       -10.5988   -0.7155   62.4470 C.ar    1  ZINC001356153960    0.1400
     19 F19       -10.5940    0.0353   63.5701 F       1  ZINC001356153960   -0.1300
     20 C20       -11.7910   -1.2209   61.9569 C.ar    1  ZINC001356153960   -0.2000
     21 C21       -11.7945   -1.9895   60.8060 C.ar    1  ZINC001356153960    0.1500
     22 F22       -12.9571   -2.4835   60.3270 F       1  ZINC001356153960   -0.1200
     23 C23       -12.4712   -2.6468   57.2265 C.3     1  ZINC001356153960    0.0700
     24 C24       -12.8206   -4.1309   57.0993 C.3     1  ZINC001356153960   -0.1900
     25 C25       -12.5024   -3.3091   55.8477 C.3     1  ZINC001356153960   -0.1800
     26 H26        -9.6472   -1.0653   54.7948 H       1  ZINC001356153960    0.4100
     27 H27       -11.7256   -0.3288   53.2908 H       1  ZINC001356153960    0.0800
     28 H28       -11.4575    1.1685   54.2152 H       1  ZINC001356153960    0.0800
     29 H29        -8.7059    1.8400   54.4689 H       1  ZINC001356153960    0.1200
     30 H30        -6.5682    0.8403   53.5649 H       1  ZINC001356153960    0.1300
     31 H31        -7.5980    0.2039   51.0669 H       1  ZINC001356153960    0.0800
     32 H32        -7.2582   -1.2104   52.1094 H       1  ZINC001356153960    0.0700
     33 H33        -9.5390   -1.4984   52.6618 H       1  ZINC001356153960    0.0800
     34 H34        -9.7979   -0.6411   51.1050 H       1  ZINC001356153960    0.0800
     35 H35       -11.2221   -3.9767   59.0501 H       1  ZINC001356153960    0.0900
     36 H36        -9.5891   -3.3899   58.6536 H       1  ZINC001356153960    0.1400
     37 H37        -8.4886   -1.9616   60.1263 H       1  ZINC001356153960    0.1600
     38 H38        -8.4815   -0.5859   62.1676 H       1  ZINC001356153960    0.1400
     39 H39       -12.7174   -1.0156   62.4725 H       1  ZINC001356153960    0.1500
     40 H40       -13.2799   -1.9587   57.4728 H       1  ZINC001356153960    0.1400
     41 H41       -12.0748   -4.8537   57.4302 H       1  ZINC001356153960    0.1400
     42 H42       -13.8592   -4.4191   57.2614 H       1  ZINC001356153960    0.0900
     43 H43       -13.3318   -3.0569   55.1870 H       1  ZINC001356153960    0.1000
     44 H44       -11.5471   -3.4912   55.3552 H       1  ZINC001356153960    0.0900
@<TRIPOS>BOND
     1     1     2    2
     2     2     3   am
     3     2    11    1
     4     3     4    1
     5     3    26    1
     6     4     5    1
     7     4    27    1
     8     4    28    1
     9     5     6    1
    10     5    10    1
    11     5     7    1
    12     7     8    2
    13     7    29    1
    14     8     9    1
    15     8    30    1
    16     9    10    1
    17     9    31    1
    18     9    32    1
    19    10    33    1
    20    10    34    1
    21    11    12    2
    22    11    13   am
    23    13    14    1
    24    13    23    1
    25    14    15    1
    26    14    35    1
    27    14    36    1
    28    15    21   ar
    29    15    16   ar
    30    16    17   ar
    31    16    37    1
    32    17    18   ar
    33    17    38    1
    34    18    19    1
    35    18    20   ar
    36    20    21   ar
    37    20    39    1
    38    21    22    1
    39    23    25    1
    40    23    24    1
    41    23    40    1
    42    24    25    1
    43    24    41    1
    44    24    42    1
    45    25    43    1
    46    25    44    1
@<TRIPOS>SUBSTRUCTURE
     1 ZINC001356153960        1 TEMP              0 ****  ****    0 ROOT


##########                                Name:    ZINC000762020937
##########                DOCK_Rotatable_Bonds:                  10
##########                         Heavy_Atoms:                  28
##########                    Molecular_Weight:             391.467
##########                DOCK_Rotatable_Bonds:                  10
##########                       Formal_Charge:         -1.8999e-07
##########                     HBond_Acceptors:                   8
##########                        HBond_Donors:                   1
##########                         Heavy_Atoms:                  28
##########                          Grid_Score:          -27.746864
##########                     Grid_vdw_energy:          -28.158026
##########                      Grid_es_energy:            0.411161
##########           Internal_energy_repulsive:           20.686537

@<TRIPOS>MOLECULE
ZINC000762020937
 57 58 1 0 0
SMALL
USER_CHARGES


@<TRIPOS>ATOM
      1 C1        -16.0889   -2.5157   62.7258 C.3     1  ZINC000762020937    0.0200
      2 O2        -15.5826   -1.4079   61.9784 O.3     1  ZINC000762020937   -0.3000
      3 C3        -14.2346   -1.3394   61.8127 C.ar    1  ZINC000762020937    0.1100
      4 C4        -13.5554   -2.3847   61.2088 C.ar    1  ZINC000762020937   -0.1700
      5 C5        -12.1846   -2.3132   61.0407 C.ar    1  ZINC000762020937   -0.1000
      6 C6        -11.4893   -1.2004   61.4745 C.ar    1  ZINC000762020937   -0.1000
      7 C7         -9.9955   -1.1278   61.2892 C.3     1  ZINC000762020937    0.0200
      8 C8         -9.6826   -0.8135   59.8490 C.2     1  ZINC000762020937    0.1900
      9 N9        -10.0038    0.2803   59.2008 N.2     1  ZINC000762020937   -0.4700
     10 C10        -9.5225    0.1176   57.9556 C.2     1  ZINC000762020937    0.1600
     11 C11        -9.6335    1.1030   56.8207 C.3     1  ZINC000762020937    0.2600
     12 H12        -9.5363    2.1169   57.2090 H       1  ZINC000762020937    0.1200
     13 N13        -8.5685    0.8488   55.8474 N.am    1  ZINC000762020937   -0.7100
     14 C14        -8.0309    1.8720   55.1540 C.2     1  ZINC000762020937    0.6600
     15 O15        -8.4287    3.0054   55.3372 O.2     1  ZINC000762020937   -0.5600
     16 O16        -7.0533    1.6381   54.2584 O.3     1  ZINC000762020937   -0.3600
     17 C17        -7.4466    1.5384   52.8642 C.3     1  ZINC000762020937    0.1400
     18 C18        -6.3192    0.8861   52.0615 C.3     1  ZINC000762020937   -0.1800
     19 C19        -8.7123    0.6863   52.7510 C.3     1  ZINC000762020937   -0.1400
     20 C20        -7.7230    2.9379   52.3109 C.3     1  ZINC000762020937   -0.1800
     21 C21       -10.9946    0.9458   56.1400 C.3     1  ZINC000762020937   -0.1000
     22 C22       -11.2434   -0.5321   55.8325 C.3     1  ZINC000762020937   -0.1400
     23 C23       -12.0930    1.4653   57.0698 C.3     1  ZINC000762020937   -0.1400
     24 N24        -8.9439   -1.0450   57.9107 N.2     1  ZINC000762020937   -0.3700
     25 O25        -9.0197   -1.5936   58.9899 O.3     1  ZINC000762020937    0.0900
     26 C26       -12.1613   -0.1531   62.0778 C.ar    1  ZINC000762020937   -0.1500
     27 C27       -13.5350   -0.2161   62.2445 C.ar    1  ZINC000762020937    0.1000
     28 O28       -14.1974    0.8129   62.8376 O.3     1  ZINC000762020937   -0.3100
     29 C29       -14.2044    2.0639   62.1469 C.3     1  ZINC000762020937    0.0200
     30 H30       -15.8067   -3.4460   62.2328 H       1  ZINC000762020937    0.0600
     31 H31       -15.6707   -2.4965   63.7323 H       1  ZINC000762020937    0.0600
     32 H32       -17.1755   -2.4496   62.7825 H       1  ZINC000762020937    0.1000
     33 H33       -14.0963   -3.2558   60.8695 H       1  ZINC000762020937    0.1400
     34 H34       -11.6563   -3.1290   60.5697 H       1  ZINC000762020937    0.1300
     35 H35        -9.5876   -0.3451   61.9289 H       1  ZINC000762020937    0.1200
     36 H36        -9.5492   -2.0856   61.5573 H       1  ZINC000762020937    0.1200
     37 H37        -8.2501   -0.0559   55.7020 H       1  ZINC000762020937    0.4100
     38 H38        -6.1223   -0.1108   52.4557 H       1  ZINC000762020937    0.0600
     39 H39        -6.6144    0.8114   51.0149 H       1  ZINC000762020937    0.0700
     40 H40        -5.4175    1.4933   52.1422 H       1  ZINC000762020937    0.0900
     41 H41        -9.5156    1.1509   53.3228 H       1  ZINC000762020937    0.0700
     42 H42        -9.0075    0.6113   51.7044 H       1  ZINC000762020937    0.0800
     43 H43        -8.5154   -0.3107   53.1451 H       1  ZINC000762020937    0.0700
     44 H44        -6.8213    3.5450   52.3916 H       1  ZINC000762020937    0.0900
     45 H45        -8.0182    2.8631   51.2644 H       1  ZINC000762020937    0.0700
     46 H46        -8.5262    3.4025   52.8827 H       1  ZINC000762020937    0.0600
     47 H47       -11.0045    1.5168   55.2114 H       1  ZINC000762020937    0.0800
     48 H48       -11.2336   -1.1031   56.7610 H       1  ZINC000762020937    0.0600
     49 H49       -12.2132   -0.6441   55.3475 H       1  ZINC000762020937    0.0600
     50 H50       -10.4610   -0.9022   55.1701 H       1  ZINC000762020937    0.0500
     51 H51       -11.9157    2.5183   57.2889 H       1  ZINC000762020937    0.0500
     52 H52       -13.0627    1.3534   56.5848 H       1  ZINC000762020937    0.0600
     53 H53       -12.0830    0.8944   57.9982 H       1  ZINC000762020937    0.0700
     54 H54       -11.6155    0.7153   62.4158 H       1  ZINC000762020937    0.1400
     55 H55       -14.6731    1.9375   61.1709 H       1  ZINC000762020937    0.0600
     56 H56       -14.7653    2.7963   62.7273 H       1  ZINC000762020937    0.1000
     57 H57       -13.1799    2.4121   62.0155 H       1  ZINC000762020937    0.0600
@<TRIPOS>BOND
     1     1     2    1
     2     1    30    1
     3     1    31    1
     4     1    32    1
     5     2     3    1
     6     3    27   ar
     7     3     4   ar
     8     4     5   ar
     9     4    33    1
    10     5     6   ar
    11     5    34    1
    12     6     7    1
    13     6    26   ar
    14     7     8    1
    15     7    35    1
    16     7    36    1
    17     8    25    1
    18     8     9    2
    19     9    10    1
    20    10    11    1
    21    10    24    2
    22    11    12    1
    23    11    13    1
    24    11    21    1
    25    13    14   am
    26    13    37    1
    27    14    15    2
    28    14    16    1
    29    16    17    1
    30    17    18    1
    31    17    19    1
    32    17    20    1
    33    18    38    1
    34    18    39    1
    35    18    40    1
    36    19    41    1
    37    19    42    1
    38    19    43    1
    39    20    44    1
    40    20    45    1
    41    20    46    1
    42    21    22    1
    43    21    23    1
    44    21    47    1
    45    22    48    1
    46    22    49    1
    47    22    50    1
    48    23    51    1
    49    23    52    1
    50    23    53    1
    51    24    25    1
    52    26    27   ar
    53    26    54    1
    54    27    28    1
    55    28    29    1
    56    29    55    1
    57    29    56    1
    58    29    57    1
@<TRIPOS>SUBSTRUCTURE
     1 ZINC000762020937        1 TEMP              0 ****  ****    0 ROOT


##########                                Name:    ZINC000279593480
##########                DOCK_Rotatable_Bonds:                   9
##########                         Heavy_Atoms:                  23
##########                    Molecular_Weight:              340.85
##########                DOCK_Rotatable_Bonds:                   9
##########                       Formal_Charge:          -0.0500002
##########                     HBond_Acceptors:                   6
##########                        HBond_Donors:                   3
##########                         Heavy_Atoms:                  23
##########                          Grid_Score:          -27.734867
##########                     Grid_vdw_energy:          -23.178173
##########                      Grid_es_energy:           -4.556693
##########           Internal_energy_repulsive:           17.413830

@<TRIPOS>MOLECULE
ZINC000279593480
 48 49 1 0 0
SMALL
USER_CHARGES


@<TRIPOS>ATOM
      1 C1          3.7849    0.0569   52.3458 C.3     1  ZINC000279593480   -0.1400
      2 C2          4.2647    1.4981   52.1621 C.3     1  ZINC000279593480   -0.1400
      3 C3          3.2006    2.2976   51.4076 C.3     1  ZINC000279593480    0.1700
      4 H4          3.6606    3.1732   50.9498 H       1  ZINC000279593480    0.0900
      5 C5          2.1115    2.7456   52.3843 C.3     1  ZINC000279593480   -0.0900
      6 C6          1.0463    3.5044   51.6354 C.ar    1  ZINC000279593480   -0.0800
      7 C7          1.1539    4.8738   51.4796 C.ar    1  ZINC000279593480   -0.1000
      8 C8          0.1773    5.5702   50.7928 C.ar    1  ZINC000279593480   -0.1100
      9 C9         -0.9081    4.8965   50.2613 C.ar    1  ZINC000279593480   -0.0400
     10 Cl10       -2.1348    5.7705   49.3982 Cl      1  ZINC000279593480   -0.0700
     11 C11        -1.0151    3.5261   50.4177 C.ar    1  ZINC000279593480   -0.1100
     12 C12        -0.0350    2.8299   51.0998 C.ar    1  ZINC000279593480   -0.1000
     13 N13         2.6060    1.4572   50.3653 N.am    1  ZINC000279593480   -0.7400
     14 C14         2.3064    1.9861   49.1624 C.2     1  ZINC000279593480    0.7100
     15 O15         2.5310    3.1607   48.9419 O.2     1  ZINC000279593480   -0.5800
     16 N16         1.7580    1.2134   48.2040 N.am    1  ZINC000279593480   -0.7500
     17 C17         1.4340    1.7881   46.8960 C.3     1  ZINC000279593480    0.1200
     18 C18         0.8572    0.6990   45.9892 C.3     1  ZINC000279593480    0.0900
     19 O19         1.5782   -0.5234   46.1560 O.3     1  ZINC000279593480   -0.5400
     20 C20        -0.6451    0.4894   46.2832 C.3     1  ZINC000279593480   -0.1900
     21 C21        -1.3410    0.8389   44.9490 C.3     1  ZINC000279593480    0.0500
     22 O22        -0.3290    0.6317   43.9396 O.3     1  ZINC000279593480   -0.3600
     23 C23         0.8913    1.1504   44.5122 C.3     1  ZINC000279593480    0.0900
     24 H24         0.9080    2.2384   44.4482 H       1  ZINC000279593480    0.0800
     25 C25         2.1083    0.5571   43.7995 C.3     1  ZINC000279593480   -0.1400
     26 H26         3.6142   -0.3965   51.3693 H       1  ZINC000279593480    0.0600
     27 H27         4.5430   -0.5127   52.8833 H       1  ZINC000279593480    0.0400
     28 H28         2.8557    0.0531   52.9155 H       1  ZINC000279593480    0.0600
     29 H29         4.4353    1.9514   53.1386 H       1  ZINC000279593480    0.0600
     30 H30         5.1939    1.5019   51.5923 H       1  ZINC000279593480    0.0700
     31 H31         1.6680    1.8710   52.8602 H       1  ZINC000279593480    0.0800
     32 H32         2.5495    3.3907   53.1460 H       1  ZINC000279593480    0.0900
     33 H33         2.0010    5.3995   51.8947 H       1  ZINC000279593480    0.1300
     34 H34         0.2612    6.6401   50.6713 H       1  ZINC000279593480    0.1300
     35 H35        -1.8623    2.9997   50.0034 H       1  ZINC000279593480    0.1300
     36 H36        -0.1183    1.7601   51.2216 H       1  ZINC000279593480    0.1300
     37 H37         2.4279    0.5199   50.5409 H       1  ZINC000279593480    0.3900
     38 H38         1.5777    0.2768   48.3804 H       1  ZINC000279593480    0.3900
     39 H39         0.6996    2.5838   47.0206 H       1  ZINC000279593480    0.0800
     40 H40         2.3383    2.1958   46.4441 H       1  ZINC000279593480    0.0800
     41 H41         1.6390   -0.8220   47.0737 H       1  ZINC000279593480    0.3700
     42 H42        -0.8399   -0.5479   46.5552 H       1  ZINC000279593480    0.0900
     43 H43        -0.9769    1.1616   47.0745 H       1  ZINC000279593480    0.0900
     44 H44        -2.1888    0.1754   44.7780 H       1  ZINC000279593480    0.1000
     45 H45        -1.6666    1.8790   44.9520 H       1  ZINC000279593480    0.0600
     46 H46         2.0867    0.8400   42.7471 H       1  ZINC000279593480    0.0600
     47 H47         3.0201    0.9380   44.2595 H       1  ZINC000279593480    0.0700
     48 H48         2.0851   -0.5293   43.8842 H       1  ZINC000279593480    0.0700
@<TRIPOS>BOND
     1     1     2    1
     2     1    26    1
     3     1    27    1
     4     1    28    1
     5     2     3    1
     6     2    29    1
     7     2    30    1
     8     3     4    1
     9     3     5    1
    10     3    13    1
    11     5     6    1
    12     5    31    1
    13     5    32    1
    14     6    12   ar
    15     6     7   ar
    16     7     8   ar
    17     7    33    1
    18     8     9   ar
    19     8    34    1
    20     9    10    1
    21     9    11   ar
    22    11    12   ar
    23    11    35    1
    24    12    36    1
    25    13    14   am
    26    13    37    1
    27    14    15    2
    28    14    16   am
    29    16    17    1
    30    16    38    1
    31    17    18    1
    32    17    39    1
    33    17    40    1
    34    18    23    1
    35    18    19    1
    36    18    20    1
    37    19    41    1
    38    20    21    1
    39    20    42    1
    40    20    43    1
    41    21    22    1
    42    21    44    1
    43    21    45    1
    44    22    23    1
    45    23    24    1
    46    23    25    1
    47    25    46    1
    48    25    47    1
    49    25    48    1
@<TRIPOS>SUBSTRUCTURE
     1 ZINC000279593480        1 TEMP              0 ****  ****    0 ROOT


##########                                Name:    ZINC000329637067
##########                DOCK_Rotatable_Bonds:                   5
##########                         Heavy_Atoms:                  26
##########                    Molecular_Weight:             362.429
##########                DOCK_Rotatable_Bonds:                   5
##########                       Formal_Charge:           0.0199998
##########                     HBond_Acceptors:                   8
##########                        HBond_Donors:                   0
##########                         Heavy_Atoms:                  26
##########                          Grid_Score:          -27.733028
##########                     Grid_vdw_energy:          -26.559902
##########                      Grid_es_energy:           -1.173126
##########           Internal_energy_repulsive:           25.964157

@<TRIPOS>MOLECULE
ZINC000329637067
 52 54 1 0 0
SMALL
USER_CHARGES


@<TRIPOS>ATOM
      1 C1        -14.4683   -6.5803   56.5563 C.3     1  ZINC000329637067   -0.1300
      2 C2        -15.0775   -5.6115   55.5758 C.2     1  ZINC000329637067    0.2200
      3 C3        -15.7658   -6.0676   54.4948 C.2     1  ZINC000329637067   -0.2900
      4 C4        -16.3195   -5.1444   53.6028 C.2     1  ZINC000329637067    0.2800
      5 C5        -17.0868   -5.6247   52.3980 C.3     1  ZINC000329637067   -0.1200
      6 N6        -16.1691   -3.8533   53.8184 N.2     1  ZINC000329637067   -0.5500
      7 C7        -15.4924   -3.4116   54.8814 C.2     1  ZINC000329637067    0.6400
      8 O8        -15.3677   -2.2114   55.0581 O.2     1  ZINC000329637067   -0.5300
      9 N9        -14.9508   -4.2719   55.7637 N.am    1  ZINC000329637067   -0.5000
     10 C10       -14.2131   -3.7629   56.9226 C.3     1  ZINC000329637067    0.0700
     11 C11       -12.7512   -3.6456   56.5756 C.2     1  ZINC000329637067    0.5100
     12 O12       -12.3800   -3.8453   55.4384 O.2     1  ZINC000329637067   -0.5200
     13 N13       -11.8564   -3.3187   57.5290 N.am    1  ZINC000329637067   -0.6100
     14 C14       -10.4280   -3.2006   57.2060 C.3     1  ZINC000329637067    0.1000
     15 C15        -9.9295   -1.8283   57.6695 C.3     1  ZINC000329637067   -0.1400
     16 C16       -10.2555   -1.6461   59.1536 C.3     1  ZINC000329637067   -0.1000
     17 C17       -11.7714   -1.7027   59.3553 C.3     1  ZINC000329637067   -0.1200
     18 H18       -12.2470   -0.9231   58.7602 H       1  ZINC000329637067    0.1000
     19 C19       -12.0933   -1.4901   60.8122 C.2     1  ZINC000329637067    0.5300
     20 O20       -12.3229   -2.4421   61.5276 O.2     1  ZINC000329637067   -0.5300
     21 N21       -12.1261   -0.2421   61.3199 N.am    1  ZINC000329637067   -0.6200
     22 C22       -12.4319   -0.0101   62.7405 C.3     1  ZINC000329637067    0.0800
     23 C23       -11.3497    0.9049   63.3249 C.3     1  ZINC000329637067    0.0500
     24 O24       -11.2240    2.0688   62.5042 O.3     1  ZINC000329637067   -0.3800
     25 C25       -10.8024    1.7981   61.1652 C.3     1  ZINC000329637067    0.0500
     26 C26       -11.8511    0.9283   60.4715 C.3     1  ZINC000329637067    0.0700
     27 C27       -12.2916   -3.0677   58.9096 C.3     1  ZINC000329637067    0.1200
     28 H28       -14.8376   -6.3633   57.5586 H       1  ZINC000329637067    0.0900
     29 H29       -14.7436   -7.5982   56.2800 H       1  ZINC000329637067    0.1000
     30 H30       -13.3830   -6.4801   56.5394 H       1  ZINC000329637067    0.0900
     31 H31       -15.8825   -7.1282   54.3277 H       1  ZINC000329637067    0.1600
     32 H32       -18.1404   -5.7307   52.6568 H       1  ZINC000329637067    0.1000
     33 H33       -16.9824   -4.9019   51.5888 H       1  ZINC000329637067    0.0900
     34 H34       -16.6927   -6.5890   52.0769 H       1  ZINC000329637067    0.0900
     35 H35       -14.6009   -2.7822   57.1981 H       1  ZINC000329637067    0.1200
     36 H36       -14.3337   -4.4498   57.7603 H       1  ZINC000329637067    0.1300
     37 H37        -9.8712   -3.9843   57.7198 H       1  ZINC000329637067    0.0800
     38 H38       -10.2877   -3.2958   56.1292 H       1  ZINC000329637067    0.0900
     39 H39        -8.8512   -1.7645   57.5233 H       1  ZINC000329637067    0.0900
     40 H40       -10.4223   -1.0475   57.0902 H       1  ZINC000329637067    0.0700
     41 H41        -9.7825   -2.4415   59.7296 H       1  ZINC000329637067    0.0800
     42 H42        -9.8799   -0.6804   59.4920 H       1  ZINC000329637067    0.0800
     43 H43       -13.4067    0.4688   62.8328 H       1  ZINC000329637067    0.0800
     44 H44       -12.4370   -0.9602   63.2748 H       1  ZINC000329637067    0.1000
     45 H45       -11.6300    1.2009   64.3358 H       1  ZINC000329637067    0.1100
     46 H46       -10.3985    0.3734   63.3509 H       1  ZINC000329637067    0.0600
     47 H47       -10.6892    2.7365   60.6224 H       1  ZINC000329637067    0.1100
     48 H48        -9.8493    1.2698   61.1834 H       1  ZINC000329637067    0.0600
     49 H49       -11.4739    0.6009   59.5028 H       1  ZINC000329637067    0.1000
     50 H50       -12.7694    1.4995   60.3346 H       1  ZINC000329637067    0.0800
     51 H51       -13.3805   -3.0775   58.9585 H       1  ZINC000329637067    0.1000
     52 H52       -11.8876   -3.8430   59.5606 H       1  ZINC000329637067    0.0800
@<TRIPOS>BOND
     1     1     2    1
     2     1    28    1
     3     1    29    1
     4     1    30    1
     5     2     9    1
     6     2     3    2
     7     3     4    1
     8     3    31    1
     9     4     5    1
    10     4     6    2
    11     5    32    1
    12     5    33    1
    13     5    34    1
    14     6     7    1
    15     7     8    2
    16     7     9   am
    17     9    10    1
    18    10    11    1
    19    10    35    1
    20    10    36    1
    21    11    12    2
    22    11    13   am
    23    13    27    1
    24    13    14    1
    25    14    15    1
    26    14    37    1
    27    14    38    1
    28    15    16    1
    29    15    39    1
    30    15    40    1
    31    16    17    1
    32    16    41    1
    33    16    42    1
    34    17    18    1
    35    17    19    1
    36    17    27    1
    37    19    20    2
    38    19    21   am
    39    21    26    1
    40    21    22    1
    41    22    23    1
    42    22    43    1
    43    22    44    1
    44    23    24    1
    45    23    45    1
    46    23    46    1
    47    24    25    1
    48    25    26    1
    49    25    47    1
    50    25    48    1
    51    26    49    1
    52    26    50    1
    53    27    51    1
    54    27    52    1
@<TRIPOS>SUBSTRUCTURE
     1 ZINC000329637067        1 TEMP              0 ****  ****    0 ROOT


##########                                Name:    ZINC000866034032
##########                DOCK_Rotatable_Bonds:                   4
##########                         Heavy_Atoms:                  23
##########                    Molecular_Weight:             383.242
##########                DOCK_Rotatable_Bonds:                   4
##########                       Formal_Charge:           0.0199999
##########                     HBond_Acceptors:                   6
##########                        HBond_Donors:                   1
##########                         Heavy_Atoms:                  23
##########                          Grid_Score:          -27.660959
##########                     Grid_vdw_energy:          -28.532360
##########                      Grid_es_energy:            0.871401
##########           Internal_energy_repulsive:           13.480385

@<TRIPOS>MOLECULE
ZINC000866034032
 42 44 1 0 0
SMALL
USER_CHARGES


@<TRIPOS>ATOM
      1 C1        -10.0967   -1.2923   61.5318 C.3     1  ZINC000866034032   -0.1300
      2 C2        -10.8385   -1.4046   60.1983 C.3     1  ZINC000866034032   -0.0800
      3 C3        -11.9600   -0.3737   60.0554 C.3     1  ZINC000866034032   -0.1300
      4 C4         -9.9043   -1.4703   58.9802 C.3     1  ZINC000866034032    0.1400
      5 H5         -8.9278   -1.0190   59.1557 H       1  ZINC000866034032    0.1100
      6 N6        -10.5288   -1.0071   57.7385 N.am    1  ZINC000866034032   -0.7000
      7 C7        -10.3998    0.2796   57.3587 C.2     1  ZINC000866034032    0.5100
      8 O8         -9.7681    1.0543   58.0455 O.2     1  ZINC000866034032   -0.5300
      9 C9        -11.0406    0.7558   56.0806 C.3     1  ZINC000866034032   -0.1100
     10 C10       -10.0967    0.5245   54.9287 C.ar    1  ZINC000866034032   -0.0500
     11 C11       -10.3859   -0.4396   53.9814 C.ar    1  ZINC000866034032   -0.0500
     12 C12        -9.5202   -0.6524   52.9249 C.ar    1  ZINC000866034032   -0.0900
     13 C13        -8.3648    0.0998   52.8156 C.ar    1  ZINC000866034032   -0.0500
     14 Br14       -7.1804   -0.1905   51.3704 Br      1  ZINC000866034032    0.0200
     15 C15        -8.0759    1.0649   53.7638 C.ar    1  ZINC000866034032   -0.0200
     16 N16        -6.8398    1.8705   53.6471 N.pl3   1  ZINC000866034032    0.0200
     17 O17        -6.5857    2.7203   54.4820 O.2     1  ZINC000866034032   -0.1600
     18 O18        -6.0768    1.6838   52.7163 O.2     1  ZINC000866034032   -0.1300
     19 C19        -8.9446    1.2806   54.8168 C.ar    1  ZINC000866034032   -0.0300
     20 C20        -9.9114   -2.9995   59.1394 C.3     1  ZINC000866034032   -0.1500
     21 H21        -9.0943   -3.4297   59.7184 H       1  ZINC000866034032    0.1200
     22 C22       -10.2513   -3.7381   57.8256 C.3     1  ZINC000866034032   -0.1400
     23 C23       -11.7807   -3.9423   57.8925 C.3     1  ZINC000866034032    0.0500
     24 O24       -12.2532   -2.9042   58.7781 O.3     1  ZINC000866034032   -0.3600
     25 C25       -11.2752   -2.8371   59.8582 C.3     1  ZINC000866034032    0.0600
     26 H26       -11.4728   -3.5031   60.6982 H       1  ZINC000866034032    0.1000
     27 H27        -9.4180   -2.1380   61.6424 H       1  ZINC000866034032    0.0600
     28 H28        -9.5266   -0.3636   61.5533 H       1  ZINC000866034032    0.0700
     29 H29       -10.8172   -1.2953   62.3497 H       1  ZINC000866034032    0.0700
     30 H30       -11.5276    0.6210   59.9473 H       1  ZINC000866034032    0.0600
     31 H31       -12.5583   -0.6074   59.1747 H       1  ZINC000866034032    0.0600
     32 H32       -12.5931   -0.4002   60.9422 H       1  ZINC000866034032    0.0600
     33 H33       -11.0350   -1.6263   57.1898 H       1  ZINC000866034032    0.4100
     34 H34       -11.9646    0.2033   55.9095 H       1  ZINC000866034032    0.1100
     35 H35       -11.2631    1.8199   56.1601 H       1  ZINC000866034032    0.1200
     36 H36       -11.2882   -1.0270   54.0669 H       1  ZINC000866034032    0.1500
     37 H37        -9.7458   -1.4063   52.1852 H       1  ZINC000866034032    0.1600
     38 H38        -8.7194    2.0343   55.5568 H       1  ZINC000866034032    0.1600
     39 H39        -9.9852   -3.1260   56.9639 H       1  ZINC000866034032    0.0800
     40 H40        -9.7391   -4.6995   57.7848 H       1  ZINC000866034032    0.0800
     41 H41       -12.2226   -3.8270   56.9029 H       1  ZINC000866034032    0.0900
     42 H42       -12.0147   -4.9253   58.3013 H       1  ZINC000866034032    0.0600
@<TRIPOS>BOND
     1     1     2    1
     2     1    27    1
     3     1    28    1
     4     1    29    1
     5     2    25    1
     6     2     3    1
     7     2     4    1
     8     3    30    1
     9     3    31    1
    10     3    32    1
    11     4     5    1
    12     4     6    1
    13     4    20    1
    14     6     7   am
    15     6    33    1
    16     7     8    2
    17     7     9    1
    18     9    10    1
    19     9    34    1
    20     9    35    1
    21    10    19   ar
    22    10    11   ar
    23    11    12   ar
    24    11    36    1
    25    12    13   ar
    26    12    37    1
    27    13    14    1
    28    13    15   ar
    29    15    16    1
    30    15    19   ar
    31    16    17    2
    32    16    18    2
    33    19    38    1
    34    20    21    1
    35    20    25    1
    36    20    22    1
    37    22    23    1
    38    22    39    1
    39    22    40    1
    40    23    24    1
    41    23    41    1
    42    23    42    1
    43    24    25    1
    44    25    26    1
@<TRIPOS>SUBSTRUCTURE
     1 ZINC000866034032        1 TEMP              0 ****  ****    0 ROOT


##########                                Name:    ZINC000188380122
##########                DOCK_Rotatable_Bonds:                   6
##########                         Heavy_Atoms:                  27
##########                    Molecular_Weight:             396.433
##########                DOCK_Rotatable_Bonds:                   6
##########                       Formal_Charge:           0.0299998
##########                     HBond_Acceptors:                   8
##########                        HBond_Donors:                   1
##########                         Heavy_Atoms:                  27
##########                          Grid_Score:          -27.657255
##########                     Grid_vdw_energy:          -27.213537
##########                      Grid_es_energy:           -0.443718
##########           Internal_energy_repulsive:            9.323112

@<TRIPOS>MOLECULE
ZINC000188380122
 46 49 1 0 0
SMALL
USER_CHARGES


@<TRIPOS>ATOM
      1 O1         -9.2964   -1.7648   63.1407 O.2     1  ZINC000188380122   -0.5200
      2 C2         -9.8727   -0.8821   62.5409 C.2     1  ZINC000188380122    0.5200
      3 C3        -10.0004    0.4878   63.1560 C.3     1  ZINC000188380122   -0.0700
      4 C4        -11.3514    0.6207   63.8104 C.2     1  ZINC000188380122    0.0900
      5 C5        -11.5019    1.1571   65.0261 C.2     1  ZINC000188380122   -0.2400
      6 S6        -13.2171    1.1314   65.4311 S.3     1  ZINC000188380122    0.1000
      7 C7        -13.5677    0.3790   63.8771 C.2     1  ZINC000188380122    0.1100
      8 C8        -14.9110   -0.0065   63.3940 C.ar    1  ZINC000188380122   -0.0200
      9 C9        -16.0462    0.6272   63.9007 C.ar    1  ZINC000188380122   -0.0400
     10 C10       -17.2969    0.2631   63.4454 C.ar    1  ZINC000188380122   -0.1200
     11 C11       -17.4267   -0.7279   62.4890 C.ar    1  ZINC000188380122   -0.0600
     12 C12       -16.3048   -1.3602   61.9826 C.ar    1  ZINC000188380122   -0.1800
     13 C13       -16.4556   -2.4384   60.9405 C.3     1  ZINC000188380122    0.5100
     14 F14       -15.4500   -3.3960   61.1114 F       1  ZINC000188380122   -0.1700
     15 F15       -17.7077   -3.0473   61.0774 F       1  ZINC000188380122   -0.1700
     16 F16       -16.3490   -1.8726   59.6654 F       1  ZINC000188380122   -0.1700
     17 C17       -15.0485   -1.0016   62.4252 C.ar    1  ZINC000188380122   -0.0500
     18 N18       -12.4544    0.2220   63.2200 N.2     1  ZINC000188380122   -0.4300
     19 N19       -10.3941   -1.1247   61.3220 N.am    1  ZINC000188380122   -0.7200
     20 C20       -10.2699   -2.4563   60.7241 C.3     1  ZINC000188380122    0.1300
     21 H21       -10.1802   -3.2481   61.4678 H       1  ZINC000188380122    0.1200
     22 C22        -9.2137   -2.5357   59.6075 C.3     1  ZINC000188380122   -0.1800
     23 C23       -10.1997   -3.4480   58.8685 C.3     1  ZINC000188380122    0.0900
     24 H24       -10.0924   -4.4890   59.1734 H       1  ZINC000188380122    0.1200
     25 O25       -10.2083   -3.3203   57.4689 O.3     1  ZINC000188380122   -0.3700
     26 C26       -10.6885   -2.1256   56.8808 C.3     1  ZINC000188380122    0.0700
     27 C27       -12.0255   -1.7145   57.4957 C.3     1  ZINC000188380122   -0.1600
     28 C28       -11.8188   -1.4631   58.9925 C.3     1  ZINC000188380122   -0.1100
     29 C29       -11.3236   -2.7464   59.6359 C.3     1  ZINC000188380122   -0.1500
     30 H30       -12.1287   -3.4074   59.9568 H       1  ZINC000188380122    0.0900
     31 H31        -9.2193    0.6245   63.9040 H       1  ZINC000188380122    0.1100
     32 H32        -9.8966    1.2458   62.3797 H       1  ZINC000188380122    0.1100
     33 H33       -10.7093    1.5397   65.6518 H       1  ZINC000188380122    0.1800
     34 H34       -15.9463    1.4005   64.6479 H       1  ZINC000188380122    0.1500
     35 H35       -18.1764    0.7527   63.8366 H       1  ZINC000188380122    0.1400
     36 H36       -18.4078   -1.0097   62.1365 H       1  ZINC000188380122    0.1500
     37 H37       -14.1737   -1.4957   62.0291 H       1  ZINC000188380122    0.1400
     38 H38       -10.8515   -0.4176   60.8407 H       1  ZINC000188380122    0.4000
     39 H39        -9.0350   -1.5851   59.1048 H       1  ZINC000188380122    0.0900
     40 H40        -8.2941   -3.0373   59.9090 H       1  ZINC000188380122    0.0800
     41 H41        -9.9610   -1.3299   57.0407 H       1  ZINC000188380122    0.0500
     42 H42       -10.8192   -2.2807   55.8099 H       1  ZINC000188380122    0.1000
     43 H43       -12.3832   -0.8026   57.0174 H       1  ZINC000188380122    0.0800
     44 H44       -12.7536   -2.5136   57.3560 H       1  ZINC000188380122    0.0800
     45 H45       -11.0790   -0.6749   59.1318 H       1  ZINC000188380122    0.0700
     46 H46       -12.7636   -1.1649   59.4469 H       1  ZINC000188380122    0.0800
@<TRIPOS>BOND
     1     1     2    2
     2     2     3    1
     3     2    19   am
     4     3     4    1
     5     3    31    1
     6     3    32    1
     7     4    18    1
     8     4     5    2
     9     5     6    1
    10     5    33    1
    11     6     7    1
    12     7     8    1
    13     7    18    2
    14     8    17   ar
    15     8     9   ar
    16     9    10   ar
    17     9    34    1
    18    10    11   ar
    19    10    35    1
    20    11    12   ar
    21    11    36    1
    22    12    13    1
    23    12    17   ar
    24    13    14    1
    25    13    15    1
    26    13    16    1
    27    17    37    1
    28    19    20    1
    29    19    38    1
    30    20    21    1
    31    20    29    1
    32    20    22    1
    33    22    23    1
    34    22    39    1
    35    22    40    1
    36    23    24    1
    37    23    29    1
    38    23    25    1
    39    25    26    1
    40    26    27    1
    41    26    41    1
    42    26    42    1
    43    27    28    1
    44    27    43    1
    45    27    44    1
    46    28    29    1
    47    28    45    1
    48    28    46    1
    49    29    30    1
@<TRIPOS>SUBSTRUCTURE
     1 ZINC000188380122        1 TEMP              0 ****  ****    0 ROOT


##########                                Name:    ZINC000011498449
##########                DOCK_Rotatable_Bonds:                   5
##########                         Heavy_Atoms:                  21
##########                    Molecular_Weight:             331.198
##########                DOCK_Rotatable_Bonds:                   5
##########                       Formal_Charge:         1.30385e-07
##########                     HBond_Acceptors:                   7
##########                        HBond_Donors:                   1
##########                         Heavy_Atoms:                  21
##########                          Grid_Score:          -27.656380
##########                     Grid_vdw_energy:          -25.155634
##########                      Grid_es_energy:           -2.500747
##########           Internal_energy_repulsive:           11.490826

@<TRIPOS>MOLECULE
ZINC000011498449
 37 38 1 0 0
SMALL
USER_CHARGES


@<TRIPOS>ATOM
      1 C1          3.8370    0.8891   51.6755 C.3     1  ZINC000011498449   -0.1500
      2 C2          2.4621    1.5201   51.9046 C.3     1  ZINC000011498449    0.0700
      3 H3          1.8629    0.8668   52.5388 H       1  ZINC000011498449    0.0600
      4 C4          1.7566    1.7134   50.5574 C.3     1  ZINC000011498449    0.0800
      5 N5          0.5260    2.4876   50.7848 N.am    1  ZINC000011498449   -0.6100
      6 C6         -0.6591    2.0639   50.3030 C.2     1  ZINC000011498449    0.5100
      7 O7         -1.6621    2.7168   50.4997 O.2     1  ZINC000011498449   -0.5300
      8 C8         -0.7381    0.7789   49.5197 C.3     1  ZINC000011498449    0.1000
      9 N9         -0.1060    0.9649   48.2112 N.am    1  ZINC000011498449   -0.7200
     10 C10        -0.8526    1.3190   47.1464 C.2     1  ZINC000011498449    0.5600
     11 O11        -2.0503    1.4854   47.2720 O.2     1  ZINC000011498449   -0.5100
     12 C12        -0.2156    1.5049   45.8267 C.ar    1  ZINC000011498449   -0.1300
     13 C13         0.0785    0.3980   45.0280 C.ar    1  ZINC000011498449   -0.0600
     14 C14         0.6727    0.5778   43.7970 C.ar    1  ZINC000011498449   -0.1100
     15 C15         0.9783    1.8533   43.3510 C.ar    1  ZINC000011498449    0.0000
     16 Cl16        1.7260    2.0703   41.7994 Cl      1  ZINC000011498449   -0.0400
     17 C17         0.6897    2.9558   44.1373 C.ar    1  ZINC000011498449   -0.1100
     18 C18         0.0900    2.7899   45.3697 C.ar    1  ZINC000011498449    0.0300
     19 Cl19       -0.2715    4.1728   46.3548 Cl      1  ZINC000011498449   -0.0100
     20 C20         0.6276    3.7378   51.5544 C.3     1  ZINC000011498449    0.0700
     21 C21         1.3881    3.4457   52.8529 C.3     1  ZINC000011498449    0.0500
     22 O22         2.6197    2.7904   52.5411 O.3     1  ZINC000011498449   -0.3700
     23 H23         4.3388    0.7536   52.6336 H       1  ZINC000011498449    0.0700
     24 H24         3.7161   -0.0785   51.1885 H       1  ZINC000011498449    0.0800
     25 H25         4.4356    1.5428   51.0411 H       1  ZINC000011498449    0.0700
     26 H26         2.4108    2.2561   49.8750 H       1  ZINC000011498449    0.0800
     27 H27         1.5058    0.7419   50.1315 H       1  ZINC000011498449    0.1000
     28 H28        -0.2205   -0.0110   50.0641 H       1  ZINC000011498449    0.1000
     29 H29        -1.7830    0.5007   49.3822 H       1  ZINC000011498449    0.1000
     30 H30         0.8498    0.8333   48.1111 H       1  ZINC000011498449    0.4100
     31 H31        -0.1587   -0.5972   45.3740 H       1  ZINC000011498449    0.1500
     32 H32         0.9008   -0.2779   43.1788 H       1  ZINC000011498449    0.1500
     33 H33         0.9304    3.9477   43.7842 H       1  ZINC000011498449    0.1500
     34 H34         1.1682    4.4842   50.9723 H       1  ZINC000011498449    0.0900
     35 H35        -0.3709    4.1068   51.7887 H       1  ZINC000011498449    0.1000
     36 H36         1.5949    4.3816   53.3721 H       1  ZINC000011498449    0.1100
     37 H37         0.7845    2.8003   53.4910 H       1  ZINC000011498449    0.0600
@<TRIPOS>BOND
     1     1     2    1
     2     1    23    1
     3     1    24    1
     4     1    25    1
     5     2     3    1
     6     2    22    1
     7     2     4    1
     8     4     5    1
     9     4    26    1
    10     4    27    1
    11     5     6   am
    12     5    20    1
    13     6     7    2
    14     6     8    1
    15     8     9    1
    16     8    28    1
    17     8    29    1
    18     9    10   am
    19     9    30    1
    20    10    11    2
    21    10    12    1
    22    12    18   ar
    23    12    13   ar
    24    13    14   ar
    25    13    31    1
    26    14    15   ar
    27    14    32    1
    28    15    16    1
    29    15    17   ar
    30    17    18   ar
    31    17    33    1
    32    18    19    1
    33    20    21    1
    34    20    34    1
    35    20    35    1
    36    21    22    1
    37    21    36    1
    38    21    37    1
@<TRIPOS>SUBSTRUCTURE
     1 ZINC000011498449        1 TEMP              0 ****  ****    0 ROOT


##########                                Name:    ZINC000951315041
##########                DOCK_Rotatable_Bonds:                   5
##########                         Heavy_Atoms:                  25
##########                    Molecular_Weight:             340.382
##########                DOCK_Rotatable_Bonds:                   5
##########                       Formal_Charge:          0.00999974
##########                     HBond_Acceptors:                   7
##########                        HBond_Donors:                   1
##########                         Heavy_Atoms:                  25
##########                          Grid_Score:          -27.613461
##########                     Grid_vdw_energy:          -28.031250
##########                      Grid_es_energy:            0.417789
##########           Internal_energy_repulsive:           12.218862

@<TRIPOS>MOLECULE
ZINC000951315041
 45 47 1 0 0
SMALL
USER_CHARGES


@<TRIPOS>ATOM
      1 C1        -16.5576   -4.6570   53.4502 C.3     1  ZINC000951315041    0.0500
      2 N2        -15.8525   -5.0885   54.6596 N.am    1  ZINC000951315041   -0.4900
      3 C3        -15.6757   -4.2167   55.6698 C.2     1  ZINC000951315041    0.1700
      4 C4        -15.0141   -4.6014   56.8181 C.2     1  ZINC000951315041   -0.2400
      5 C5        -14.8229   -3.6427   57.9221 C.2     1  ZINC000951315041    0.5800
      6 O6        -15.7126   -3.4615   58.7311 O.2     1  ZINC000951315041   -0.5200
      7 N7        -13.6621   -2.9671   58.0345 N.am    1  ZINC000951315041   -0.6000
      8 C8        -12.5780   -3.1751   57.0649 C.3     1  ZINC000951315041    0.1100
      9 C9        -11.2959   -3.5256   57.8265 C.3     1  ZINC000951315041   -0.1300
     10 C10       -11.0106   -2.4379   58.8647 C.3     1  ZINC000951315041   -0.1300
     11 C11       -12.1651   -2.3718   59.8672 C.3     1  ZINC000951315041    0.1300
     12 H12       -12.2830   -3.3414   60.3508 H       1  ZINC000951315041    0.1000
     13 N13       -11.8762   -1.3526   60.8791 N.am    1  ZINC000951315041   -0.7200
     14 C14       -10.8840   -1.5495   61.7697 C.2     1  ZINC000951315041    0.5700
     15 O15       -10.2298   -2.5734   61.7342 O.2     1  ZINC000951315041   -0.5200
     16 C16       -10.5912   -0.5202   62.7898 C.ar    1  ZINC000951315041   -0.1900
     17 C17        -9.5707   -0.7174   63.7274 C.ar    1  ZINC000951315041   -0.0100
     18 C18        -9.3365    0.2771   64.6609 C.ar    1  ZINC000951315041   -0.1800
     19 C19       -10.1106    1.4230   64.6379 C.ar    1  ZINC000951315041    0.1300
     20 N20       -11.0665    1.5814   63.7422 N.ar    1  ZINC000951315041   -0.4900
     21 C21       -11.3237    0.6670   62.8305 C.ar    1  ZINC000951315041    0.1400
     22 C22       -13.4592   -2.0040   59.1254 C.3     1  ZINC000951315041    0.1000
     23 C23       -14.5207   -5.9240   56.9283 C.2     1  ZINC000951315041    0.0100
     24 C24       -14.7116   -6.7872   55.8951 C.2     1  ZINC000951315041   -0.2300
     25 C25       -15.3967   -6.3513   54.7454 C.2     1  ZINC000951315041    0.5100
     26 O26       -15.5708   -7.1219   53.8162 O.2     1  ZINC000951315041   -0.5400
     27 H27       -16.6122   -5.4871   52.7459 H       1  ZINC000951315041    0.1100
     28 H28       -17.5659   -4.3361   53.7124 H       1  ZINC000951315041    0.0800
     29 H29       -16.0196   -3.8269   52.9926 H       1  ZINC000951315041    0.0800
     30 H30       -16.0540   -3.2090   55.5809 H       1  ZINC000951315041    0.1700
     31 H31       -12.8397   -3.9933   56.3940 H       1  ZINC000951315041    0.1000
     32 H32       -12.4230   -2.2629   56.4888 H       1  ZINC000951315041    0.0700
     33 H33       -11.4220   -4.4844   58.3294 H       1  ZINC000951315041    0.0700
     34 H34       -10.4626   -3.5881   57.1268 H       1  ZINC000951315041    0.0900
     35 H35       -10.0854   -2.6724   59.3913 H       1  ZINC000951315041    0.0800
     36 H36       -10.9091   -1.4752   58.3637 H       1  ZINC000951315041    0.0700
     37 H37       -12.3989   -0.5361   60.9082 H       1  ZINC000951315041    0.4000
     38 H38        -8.9814   -1.6226   63.7227 H       1  ZINC000951315041    0.1500
     39 H39        -8.5576    0.1594   65.3999 H       1  ZINC000951315041    0.1500
     40 H40        -9.9301    2.2006   65.3653 H       1  ZINC000951315041    0.1600
     41 H41       -12.1143    0.8332   62.1136 H       1  ZINC000951315041    0.1600
     42 H42       -13.3738   -0.9962   58.7191 H       1  ZINC000951315041    0.0700
     43 H43       -14.3019   -2.0520   59.8150 H       1  ZINC000951315041    0.0900
     44 H44       -14.0002   -6.2424   57.8194 H       1  ZINC000951315041    0.1400
     45 H45       -14.3431   -7.8005   55.9576 H       1  ZINC000951315041    0.1600
@<TRIPOS>BOND
     1     1     2    1
     2     1    27    1
     3     1    28    1
     4     1    29    1
     5     2    25   am
     6     2     3    1
     7     3     4    2
     8     3    30    1
     9     4     5    1
    10     4    23    1
    11     5     6    2
    12     5     7   am
    13     7    22    1
    14     7     8    1
    15     8     9    1
    16     8    31    1
    17     8    32    1
    18     9    10    1
    19     9    33    1
    20     9    34    1
    21    10    11    1
    22    10    35    1
    23    10    36    1
    24    11    12    1
    25    11    13    1
    26    11    22    1
    27    13    14   am
    28    13    37    1
    29    14    15    2
    30    14    16    1
    31    16    21   ar
    32    16    17   ar
    33    17    18   ar
    34    17    38    1
    35    18    19   ar
    36    18    39    1
    37    19    20   ar
    38    19    40    1
    39    20    21   ar
    40    21    41    1
    41    22    42    1
    42    22    43    1
    43    23    24    2
    44    23    44    1
    45    24    25    1
    46    24    45    1
    47    25    26    2
@<TRIPOS>SUBSTRUCTURE
     1 ZINC000951315041        1 TEMP              0 ****  ****    0 ROOT


##########                                Name:    ZINC001282645012
##########                DOCK_Rotatable_Bonds:                   9
##########                         Heavy_Atoms:                  27
##########                    Molecular_Weight:             372.511
##########                DOCK_Rotatable_Bonds:                   9
##########                       Formal_Charge:          -0.0200004
##########                     HBond_Acceptors:                   6
##########                        HBond_Donors:                   1
##########                         Heavy_Atoms:                  27
##########                          Grid_Score:          -27.544373
##########                     Grid_vdw_energy:          -26.138683
##########                      Grid_es_energy:           -1.405690
##########           Internal_energy_repulsive:           42.192837

@<TRIPOS>MOLECULE
ZINC001282645012
 59 61 1 0 0
SMALL
USER_CHARGES


@<TRIPOS>ATOM
      1 C1        -15.9063   -4.1570   58.2975 C.2     1  ZINC001282645012   -0.1900
      2 C2        -15.5862   -3.9454   57.0449 C.2     1  ZINC001282645012   -0.1300
      3 C3        -14.5102   -4.7741   56.3918 C.3     1  ZINC001282645012   -0.0500
      4 C4        -14.9917   -6.2201   56.2566 C.3     1  ZINC001282645012   -0.1500
      5 C5        -14.2016   -4.2075   55.0045 C.3     1  ZINC001282645012   -0.1400
      6 C6        -13.2639   -4.7368   57.2383 C.2     1  ZINC001282645012    0.5500
      7 O7        -12.7129   -5.7705   57.5521 O.2     1  ZINC001282645012   -0.5300
      8 N8        -12.7618   -3.5545   57.6465 N.am    1  ZINC001282645012   -0.6300
      9 C9        -13.2367   -2.1496   57.4057 C.3     1  ZINC001282645012    0.1200
     10 H10       -14.1345   -2.0492   56.7959 H       1  ZINC001282645012    0.1300
     11 C11       -11.9493   -1.4954   56.8198 C.3     1  ZINC001282645012   -0.1300
     12 C12       -10.8036   -2.2353   57.5533 C.3     1  ZINC001282645012   -0.1300
     13 C13       -11.5586   -3.2361   58.4880 C.3     1  ZINC001282645012    0.1200
     14 H14       -10.9765   -4.0928   58.8277 H       1  ZINC001282645012    0.1200
     15 C15       -12.1746   -2.3525   59.6143 C.3     1  ZINC001282645012    0.1300
     16 H16       -12.5697   -2.9744   60.4174 H       1  ZINC001282645012    0.1000
     17 N17       -11.1794   -1.4116   60.1344 N.am    1  ZINC001282645012   -0.7100
     18 C18       -11.5458   -0.4648   61.0209 C.2     1  ZINC001282645012    0.5100
     19 O19       -12.6996   -0.3908   61.3869 O.2     1  ZINC001282645012   -0.5100
     20 C20       -10.5217    0.5019   61.5572 C.3     1  ZINC001282645012    0.1200
     21 H21        -9.6609    0.5272   60.8890 H       1  ZINC001282645012    0.1300
     22 C22       -11.1379    1.8993   61.6482 C.3     1  ZINC001282645012   -0.1100
     23 C23       -10.9241    2.6381   60.3256 C.3     1  ZINC001282645012   -0.1000
     24 C24       -11.2624    1.7062   59.1603 C.3     1  ZINC001282645012   -0.1500
     25 C25       -11.8330    3.8678   60.2756 C.3     1  ZINC001282645012   -0.1500
     26 N26       -10.0928    0.0696   62.8897 N.pl3   1  ZINC001282645012   -0.4500
     27 C27        -9.0113   -0.7179   63.1792 C.2     1  ZINC001282645012   -0.0600
     28 C28        -8.9851   -0.8672   64.5173 C.2     1  ZINC001282645012   -0.0200
     29 N29       -10.0223   -0.1895   65.0309 N.2     1  ZINC001282645012   -0.4900
     30 C30       -10.6873    0.3783   64.0622 C.2     1  ZINC001282645012    0.1900
     31 C31       -13.3533   -1.6192   58.8665 C.3     1  ZINC001282645012   -0.1400
     32 H32       -15.3991   -4.9255   58.8620 H       1  ZINC001282645012    0.1000
     33 H33       -16.6742   -3.5601   58.7669 H       1  ZINC001282645012    0.1000
     34 H34       -16.0932   -3.1769   56.4804 H       1  ZINC001282645012    0.1100
     35 H35       -15.8931   -6.2471   55.6443 H       1  ZINC001282645012    0.0700
     36 H36       -14.2135   -6.8195   55.7841 H       1  ZINC001282645012    0.0700
     37 H37       -15.2115   -6.6238   57.2448 H       1  ZINC001282645012    0.0600
     38 H38       -13.8586   -3.1774   55.1008 H       1  ZINC001282645012    0.0600
     39 H39       -13.4234   -4.8070   54.5321 H       1  ZINC001282645012    0.0700
     40 H40       -15.1029   -4.2345   54.3923 H       1  ZINC001282645012    0.0700
     41 H41       -11.8884   -1.6635   55.7445 H       1  ZINC001282645012    0.0800
     42 H42       -11.9238   -0.4293   57.0449 H       1  ZINC001282645012    0.0800
     43 H43       -10.1746   -2.7703   56.8418 H       1  ZINC001282645012    0.0700
     44 H44       -10.2100   -1.5360   58.1420 H       1  ZINC001282645012    0.0800
     45 H45       -10.2568   -1.4700   59.8407 H       1  ZINC001282645012    0.4000
     46 H46       -12.2060    1.8131   61.8477 H       1  ZINC001282645012    0.0900
     47 H47       -10.6612    2.4548   62.4559 H       1  ZINC001282645012    0.0800
     48 H48        -9.8832    2.9524   60.2491 H       1  ZINC001282645012    0.0700
     49 H49       -12.3033    1.3919   59.2368 H       1  ZINC001282645012    0.0600
     50 H50       -11.1100    2.2325   58.2181 H       1  ZINC001282645012    0.0600
     51 H51       -10.6148    0.8301   59.1960 H       1  ZINC001282645012    0.0500
     52 H52       -11.5357    4.5713   61.0534 H       1  ZINC001282645012    0.0600
     53 H53       -11.7442    4.3459   59.3001 H       1  ZINC001282645012    0.0600
     54 H54       -12.8667    3.5625   60.4377 H       1  ZINC001282645012    0.0600
     55 H55        -8.3133   -1.1388   62.4706 H       1  ZINC001282645012    0.1700
     56 H56        -8.2566   -1.4335   65.0785 H       1  ZINC001282645012    0.1700
     57 H57       -11.5708    0.9886   64.1785 H       1  ZINC001282645012    0.2000
     58 H58       -13.2011   -0.5400   58.8753 H       1  ZINC001282645012    0.0900
     59 H59       -14.3122   -1.8765   59.3162 H       1  ZINC001282645012    0.0900
@<TRIPOS>BOND
     1     1     2    2
     2     1    32    1
     3     1    33    1
     4     2     3    1
     5     2    34    1
     6     3     4    1
     7     3     5    1
     8     3     6    1
     9     4    35    1
    10     4    36    1
    11     4    37    1
    12     5    38    1
    13     5    39    1
    14     5    40    1
    15     6     7    2
    16     6     8   am
    17     8    13    1
    18     8     9    1
    19     9    10    1
    20     9    31    1
    21     9    11    1
    22    11    12    1
    23    11    41    1
    24    11    42    1
    25    12    13    1
    26    12    43    1
    27    12    44    1
    28    13    14    1
    29    13    15    1
    30    15    16    1
    31    15    17    1
    32    15    31    1
    33    17    18   am
    34    17    45    1
    35    18    19    2
    36    18    20    1
    37    20    21    1
    38    20    22    1
    39    20    26    1
    40    22    23    1
    41    22    46    1
    42    22    47    1
    43    23    24    1
    44    23    25    1
    45    23    48    1
    46    24    49    1
    47    24    50    1
    48    24    51    1
    49    25    52    1
    50    25    53    1
    51    25    54    1
    52    26    30    1
    53    26    27    1
    54    27    28    2
    55    27    55    1
    56    28    29    1
    57    28    56    1
    58    29    30    2
    59    30    57    1
    60    31    58    1
    61    31    59    1
@<TRIPOS>SUBSTRUCTURE
     1 ZINC001282645012        1 TEMP              0 ****  ****    0 ROOT


##########                                Name:    ZINC000558052810
##########                DOCK_Rotatable_Bonds:                   9
##########                         Heavy_Atoms:                  30
##########                    Molecular_Weight:             424.524
##########                DOCK_Rotatable_Bonds:                   9
##########                       Formal_Charge:          -0.0200002
##########                     HBond_Acceptors:                   8
##########                        HBond_Donors:                   1
##########                         Heavy_Atoms:                  30
##########                          Grid_Score:          -27.543722
##########                     Grid_vdw_energy:          -26.350817
##########                      Grid_es_energy:           -1.192905
##########           Internal_energy_repulsive:           10.362887

@<TRIPOS>MOLECULE
ZINC000558052810
 54 56 1 0 0
SMALL
USER_CHARGES


@<TRIPOS>ATOM
      1 C1        -16.7038   -2.9369   58.7941 C.3     1  ZINC000558052810   -0.1700
      2 C2        -17.5223   -2.3152   57.6608 C.3     1  ZINC000558052810    0.1100
      3 N3        -16.6245   -1.6218   56.7337 N.am    1  ZINC000558052810   -0.6100
      4 C4        -16.4220   -0.1759   56.8536 C.3     1  ZINC000558052810    0.0700
      5 C5        -15.9848   -2.3143   55.7705 C.2     1  ZINC000558052810    0.5600
      6 O6        -16.1527   -3.5141   55.6711 O.2     1  ZINC000558052810   -0.5300
      7 C7        -15.0787   -1.6146   54.8348 C.ar    1  ZINC000558052810   -0.1100
      8 C8        -15.5495   -1.1862   53.5926 C.ar    1  ZINC000558052810   -0.1100
      9 C9        -14.7016   -0.5333   52.7209 C.ar    1  ZINC000558052810   -0.1000
     10 C10       -13.3854   -0.3017   53.0731 C.ar    1  ZINC000558052810   -0.1300
     11 C11       -12.9066   -0.7248   54.3076 C.ar    1  ZINC000558052810    0.1400
     12 N12       -11.5734   -0.4884   54.6591 N.am    1  ZINC000558052810   -0.6600
     13 C13       -11.1851    0.7450   55.0390 C.2     1  ZINC000558052810    0.5600
     14 O14       -11.9939    1.6526   55.0763 O.2     1  ZINC000558052810   -0.4800
     15 C15        -9.7807    0.9940   55.4092 C.ar    1  ZINC000558052810   -0.1900
     16 C16        -8.8820    1.5274   54.4784 C.ar    1  ZINC000558052810   -0.0200
     17 C17        -7.5741    1.7424   54.8757 C.ar    1  ZINC000558052810   -0.1900
     18 C18        -7.1937    1.4279   56.1682 C.ar    1  ZINC000558052810    0.1500
     19 N19        -8.0546    0.9256   57.0313 N.ar    1  ZINC000558052810   -0.4900
     20 C20        -9.3200    0.7054   56.7063 C.ar    1  ZINC000558052810    0.1600
     21 S21       -10.4272    0.0321   57.9003 S.3     1  ZINC000558052810    0.0600
     22 C22        -9.4436   -1.3701   58.4856 C.3     1  ZINC000558052810   -0.0700
     23 C23       -10.1881   -2.0816   59.5858 C.2     1  ZINC000558052810   -0.2000
     24 C24       -11.1664   -3.0106   59.4655 C.2     1  ZINC000558052810   -0.0100
     25 C25       -11.7433   -3.5524   58.1830 C.3     1  ZINC000558052810   -0.0800
     26 O26       -11.5202   -3.3528   60.7122 O.3     1  ZINC000558052810    0.1000
     27 N27       -10.8782   -2.7469   61.5386 N.2     1  ZINC000558052810   -0.3600
     28 C28       -10.0226   -1.9387   60.9826 C.2     1  ZINC000558052810    0.0300
     29 C29        -9.0543   -1.0245   61.6881 C.3     1  ZINC000558052810   -0.0800
     30 C30       -13.7519   -1.3753   55.1929 C.ar    1  ZINC000558052810   -0.0700
     31 H31       -15.9901   -3.6485   58.3790 H       1  ZINC000558052810    0.0600
     32 H32       -16.1666   -2.1524   59.3271 H       1  ZINC000558052810    0.0600
     33 H33       -17.3719   -3.4528   59.4839 H       1  ZINC000558052810    0.0700
     34 H34       -18.0595   -3.0997   57.1279 H       1  ZINC000558052810    0.0800
     35 H35       -18.2360   -1.6036   58.0760 H       1  ZINC000558052810    0.0800
     36 H36       -15.6407    0.0219   57.5875 H       1  ZINC000558052810    0.0600
     37 H37       -16.1240    0.2307   55.8872 H       1  ZINC000558052810    0.0800
     38 H38       -17.3505    0.2956   57.1754 H       1  ZINC000558052810    0.0700
     39 H39       -16.5771   -1.3659   53.3134 H       1  ZINC000558052810    0.1400
     40 H40       -15.0678   -0.2027   51.7601 H       1  ZINC000558052810    0.1400
     41 H41       -12.7265    0.2093   52.3866 H       1  ZINC000558052810    0.1300
     42 H42       -10.9283   -1.2122   54.6292 H       1  ZINC000558052810    0.4100
     43 H43        -9.2015    1.7650   53.4744 H       1  ZINC000558052810    0.1400
     44 H44        -6.8554    2.1524   54.1817 H       1  ZINC000558052810    0.1500
     45 H45        -6.1723    1.5966   56.4758 H       1  ZINC000558052810    0.1700
     46 H46        -9.2680   -2.0603   57.6604 H       1  ZINC000558052810    0.1000
     47 H47        -8.4883   -1.0097   58.8674 H       1  ZINC000558052810    0.1000
     48 H48       -11.1745   -4.4280   57.8702 H       1  ZINC000558052810    0.0900
     49 H49       -12.7841   -3.8334   58.3430 H       1  ZINC000558052810    0.0900
     50 H50       -11.6883   -2.7877   57.4082 H       1  ZINC000558052810    0.0900
     51 H51        -8.1153   -1.5514   61.8583 H       1  ZINC000558052810    0.0800
     52 H52        -8.8705   -0.1445   61.0717 H       1  ZINC000558052810    0.0800
     53 H53        -9.4765   -0.7163   62.6446 H       1  ZINC000558052810    0.0800
     54 H54       -13.3819   -1.7046   56.1526 H       1  ZINC000558052810    0.1500
@<TRIPOS>BOND
     1     1     2    1
     2     1    31    1
     3     1    32    1
     4     1    33    1
     5     2     3    1
     6     2    34    1
     7     2    35    1
     8     3     4    1
     9     3     5   am
    10     4    36    1
    11     4    37    1
    12     4    38    1
    13     5     6    2
    14     5     7    1
    15     7    30   ar
    16     7     8   ar
    17     8     9   ar
    18     8    39    1
    19     9    10   ar
    20     9    40    1
    21    10    11   ar
    22    10    41    1
    23    11    12    1
    24    11    30   ar
    25    12    13   am
    26    12    42    1
    27    13    14    2
    28    13    15    1
    29    15    20   ar
    30    15    16   ar
    31    16    17   ar
    32    16    43    1
    33    17    18   ar
    34    17    44    1
    35    18    19   ar
    36    18    45    1
    37    19    20   ar
    38    20    21    1
    39    21    22    1
    40    22    23    1
    41    22    46    1
    42    22    47    1
    43    23    28    1
    44    23    24    2
    45    24    25    1
    46    24    26    1
    47    25    48    1
    48    25    49    1
    49    25    50    1
    50    26    27    1
    51    27    28    2
    52    28    29    1
    53    29    51    1
    54    29    52    1
    55    29    53    1
    56    30    54    1
@<TRIPOS>SUBSTRUCTURE
     1 ZINC000558052810        1 TEMP              0 ****  ****    0 ROOT


##########                                Name:    ZINC000479580180
##########                DOCK_Rotatable_Bonds:                   5
##########                         Heavy_Atoms:                  30
##########                    Molecular_Weight:             404.444
##########                DOCK_Rotatable_Bonds:                   5
##########                       Formal_Charge:           0.0299995
##########                     HBond_Acceptors:                   7
##########                        HBond_Donors:                   1
##########                         Heavy_Atoms:                  30
##########                          Grid_Score:          -27.524809
##########                     Grid_vdw_energy:          -27.120758
##########                      Grid_es_energy:           -0.404051
##########           Internal_energy_repulsive:           11.288897

@<TRIPOS>MOLECULE
ZINC000479580180
 51 55 1 0 0
SMALL
USER_CHARGES


@<TRIPOS>ATOM
      1 O1        -11.0381   -0.3544   59.2071 O.2     1  ZINC000479580180   -0.5200
      2 C2        -11.1917   -1.5575   59.2025 C.2     1  ZINC000479580180    0.5200
      3 C3        -11.1488   -2.3275   60.4972 C.3     1  ZINC000479580180   -0.0700
      4 C4        -10.9168   -1.3742   61.6412 C.2     1  ZINC000479580180   -0.1600
      5 C5         -9.7356   -1.0095   62.1574 C.2     1  ZINC000479580180    0.0300
      6 O6         -9.9197   -0.1428   63.1691 O.3     1  ZINC000479580180   -0.1900
      7 C7        -11.2317    0.0997   63.3616 C.ar    1  ZINC000479580180    0.0800
      8 C8        -11.9352    0.8977   64.2546 C.ar    1  ZINC000479580180   -0.1400
      9 C9        -13.3145    0.9363   64.2010 C.ar    1  ZINC000479580180    0.1300
     10 F10       -13.9964    1.7136   65.0705 F       1  ZINC000479580180   -0.1300
     11 C11       -14.0076    0.1838   63.2615 C.ar    1  ZINC000479580180   -0.1600
     12 C12       -13.3320   -0.6080   62.3744 C.ar    1  ZINC000479580180   -0.0400
     13 C13       -11.9395   -0.6538   62.4097 C.ar    1  ZINC000479580180   -0.1200
     14 N14       -11.4063   -2.2051   58.0401 N.am    1  ZINC000479580180   -0.6200
     15 C15       -11.6060   -3.6606   58.0199 C.3     1  ZINC000479580180    0.1100
     16 C16       -12.9131   -3.9686   57.2829 C.3     1  ZINC000479580180   -0.1300
     17 C17       -12.8781   -3.3196   55.8973 C.3     1  ZINC000479580180   -0.0100
     18 C18       -14.1483   -3.6492   55.1564 C.2     1  ZINC000479580180    0.3000
     19 N19       -14.6375   -4.8466   54.9708 N.2     1  ZINC000479580180   -0.5300
     20 C20       -15.7772   -4.7673   54.2709 C.2     1  ZINC000479580180    0.2700
     21 C21       -16.6242   -5.9161   53.8640 C.ar    1  ZINC000479580180   -0.0200
     22 C22       -17.8621   -5.6941   53.2643 C.ar    1  ZINC000479580180   -0.0800
     23 C23       -18.6455   -6.7661   52.8875 C.ar    1  ZINC000479580180   -0.1300
     24 C24       -18.2040   -8.0589   53.1046 C.ar    1  ZINC000479580180   -0.1000
     25 C25       -16.9759   -8.2848   53.6996 C.ar    1  ZINC000479580180   -0.1200
     26 C26       -16.1818   -7.2203   54.0751 C.ar    1  ZINC000479580180   -0.0800
     27 N27       -16.0213   -3.5030   54.0047 N.2     1  ZINC000479580180   -0.3000
     28 N28       -14.9758   -2.7606   54.5775 N.pl3   1  ZINC000479580180   -0.4800
     29 C29       -12.7537   -1.8016   56.0462 C.3     1  ZINC000479580180   -0.1400
     30 C30       -11.4508   -1.4682   56.7698 C.3     1  ZINC000479580180    0.1200
     31 H31       -12.0963   -2.8463   60.6431 H       1  ZINC000479580180    0.1100
     32 H32       -10.3381   -3.0552   60.4606 H       1  ZINC000479580180    0.1100
     33 H33        -8.7747   -1.3606   61.8113 H       1  ZINC000479580180    0.2100
     34 H34       -11.4049    1.4860   64.9889 H       1  ZINC000479580180    0.1500
     35 H35       -15.0864    0.2241   63.2314 H       1  ZINC000479580180    0.1400
     36 H36       -13.8752   -1.1917   61.6460 H       1  ZINC000479580180    0.1300
     37 H37       -10.7734   -4.1365   57.5017 H       1  ZINC000479580180    0.0800
     38 H38       -11.6654   -4.0355   59.0416 H       1  ZINC000479580180    0.0900
     39 H39       -13.0252   -5.0476   57.1766 H       1  ZINC000479580180    0.0900
     40 H40       -13.7537   -3.5693   57.8506 H       1  ZINC000479580180    0.0700
     41 H41       -12.0229   -3.7009   55.3393 H       1  ZINC000479580180    0.1200
     42 H42       -18.2080   -4.6852   53.0950 H       1  ZINC000479580180    0.1400
     43 H43       -19.6052   -6.5953   52.4225 H       1  ZINC000479580180    0.1300
     44 H44       -18.8205   -8.8948   52.8088 H       1  ZINC000479580180    0.1300
     45 H45       -16.6361   -9.2962   53.8672 H       1  ZINC000479580180    0.1300
     46 H46       -15.2230   -7.3979   54.5394 H       1  ZINC000479580180    0.1300
     47 H47       -14.8684   -1.7968   54.5550 H       1  ZINC000479580180    0.4400
     48 H48       -12.7524   -1.3383   55.0597 H       1  ZINC000479580180    0.0900
     49 H49       -13.5958   -1.4227   56.6254 H       1  ZINC000479580180    0.0700
     50 H50       -11.4054   -0.3968   56.9656 H       1  ZINC000479580180    0.1000
     51 H51       -10.6033   -1.7650   56.1519 H       1  ZINC000479580180    0.0800
@<TRIPOS>BOND
     1     1     2    2
     2     2     3    1
     3     2    14   am
     4     3     4    1
     5     3    31    1
     6     3    32    1
     7     4    13    1
     8     4     5    2
     9     5     6    1
    10     5    33    1
    11     6     7    1
    12     7    13   ar
    13     7     8   ar
    14     8     9   ar
    15     8    34    1
    16     9    10    1
    17     9    11   ar
    18    11    12   ar
    19    11    35    1
    20    12    13   ar
    21    12    36    1
    22    14    30    1
    23    14    15    1
    24    15    16    1
    25    15    37    1
    26    15    38    1
    27    16    17    1
    28    16    39    1
    29    16    40    1
    30    17    18    1
    31    17    29    1
    32    17    41    1
    33    18    28    1
    34    18    19    2
    35    19    20    1
    36    20    21    1
    37    20    27    2
    38    21    26   ar
    39    21    22   ar
    40    22    23   ar
    41    22    42    1
    42    23    24   ar
    43    23    43    1
    44    24    25   ar
    45    24    44    1
    46    25    26   ar
    47    25    45    1
    48    26    46    1
    49    27    28    1
    50    28    47    1
    51    29    30    1
    52    29    48    1
    53    29    49    1
    54    30    50    1
    55    30    51    1
@<TRIPOS>SUBSTRUCTURE
     1 ZINC000479580180        1 TEMP              0 ****  ****    0 ROOT


##########                                Name:    ZINC001401207732
##########                DOCK_Rotatable_Bonds:                   8
##########                         Heavy_Atoms:                  23
##########                    Molecular_Weight:             337.446
##########                DOCK_Rotatable_Bonds:                   8
##########                       Formal_Charge:          -0.0199995
##########                     HBond_Acceptors:                   8
##########                        HBond_Donors:                   1
##########                         Heavy_Atoms:                  23
##########                          Grid_Score:          -27.521858
##########                     Grid_vdw_energy:          -27.156500
##########                      Grid_es_energy:           -0.365359
##########           Internal_energy_repulsive:           99.140419

@<TRIPOS>MOLECULE
ZINC001401207732
 46 47 1 0 0
SMALL
USER_CHARGES


@<TRIPOS>ATOM
      1 C1          4.9361    1.3007   53.9178 C.3     1  ZINC001401207732   -0.0900
      2 C2          5.4878    1.6177   52.5516 C.2     1  ZINC001401207732    0.1500
      3 C3          4.7023    1.9711   51.5035 C.2     1  ZINC001401207732   -0.3000
      4 C4          3.2412    2.0985   51.5220 C.2     1  ZINC001401207732    0.6100
      5 O5          2.6246    1.8829   52.5488 O.2     1  ZINC001401207732   -0.5200
      6 N6          2.5815    2.4544   50.4020 N.am    1  ZINC001401207732   -0.5900
      7 C7          3.3239    2.7140   49.1659 C.3     1  ZINC001401207732    0.0700
      8 C8          1.1222    2.5817   50.4204 C.3     1  ZINC001401207732    0.1400
      9 H9          0.7838    2.7350   51.4451 H       1  ZINC001401207732    0.1100
     10 C10         0.7035    3.7763   49.5610 C.3     1  ZINC001401207732   -0.1600
     11 C11         0.4917    1.3048   49.8608 C.3     1  ZINC001401207732    0.0500
     12 N12        -0.9693    1.4539   49.8281 N.3     1  ZINC001401207732   -0.6800
     13 C13        -1.6060    0.2706   49.2343 C.3     1  ZINC001401207732    0.1500
     14 C14        -1.2391    0.1817   47.7753 C.2     1  ZINC001401207732    0.1800
     15 N15        -1.1176    1.1838   46.9383 N.2     1  ZINC001401207732   -0.4800
     16 C16        -0.7804    0.6315   45.7592 C.2     1  ZINC001401207732    0.1800
     17 C17        -0.5254    1.3684   44.4696 C.3     1  ZINC001401207732   -0.0100
     18 C18        -0.0300    2.7823   44.7795 C.3     1  ZINC001401207732   -0.1500
     19 C19         0.5355    0.6229   43.6574 C.3     1  ZINC001401207732   -0.1500
     20 N20        -0.7154   -0.6543   45.9360 N.2     1  ZINC001401207732   -0.3800
     21 O21        -0.9698   -0.9328   47.0888 O.3     1  ZINC001401207732    0.0900
     22 S22         5.7514    2.2422   50.1139 S.3     1  ZINC001401207732    0.1800
     23 C23         7.1226    1.8700   51.0645 C.2     1  ZINC001401207732    0.0100
     24 N24         6.7667    1.5765   52.2739 N.2     1  ZINC001401207732   -0.4800
     25 H25         4.7130    0.2357   53.9814 H       1  ZINC001401207732    0.0800
     26 H26         5.6727    1.5636   54.6770 H       1  ZINC001401207732    0.0800
     27 H27         4.0237    1.8736   54.0831 H       1  ZINC001401207732    0.1000
     28 H28         3.6883    3.7413   49.1699 H       1  ZINC001401207732    0.0600
     29 H29         4.1691    2.0289   49.0989 H       1  ZINC001401207732    0.0800
     30 H30         2.6666    2.5650   48.3093 H       1  ZINC001401207732    0.0900
     31 H31        -0.3823    3.8709   49.5748 H       1  ZINC001401207732    0.0700
     32 H32         1.1526    4.6859   49.9597 H       1  ZINC001401207732    0.0700
     33 H33         1.0419    3.6230   48.5363 H       1  ZINC001401207732    0.0600
     34 H34         0.7566    0.4600   50.4967 H       1  ZINC001401207732    0.0800
     35 H35         0.8618    1.1294   48.8507 H       1  ZINC001401207732    0.0500
     36 H36        -1.2361    2.2934   49.3358 H       1  ZINC001401207732    0.3600
     37 H37        -2.6885    0.3529   49.3323 H       1  ZINC001401207732    0.1100
     38 H38        -1.2614   -0.6251   49.7509 H       1  ZINC001401207732    0.0800
     39 H39        -1.4497    1.4252   43.8946 H       1  ZINC001401207732    0.1000
     40 H40         0.1545    3.3153   43.8467 H       1  ZINC001401207732    0.0700
     41 H41        -0.7857    3.3135   45.3581 H       1  ZINC001401207732    0.0600
     42 H42         0.8944    2.7257   45.3544 H       1  ZINC001401207732    0.0600
     43 H43         0.1826   -0.3845   43.4366 H       1  ZINC001401207732    0.0600
     44 H44         0.7199    1.1558   42.7247 H       1  ZINC001401207732    0.0700
     45 H45         1.4598    0.5661   44.2323 H       1  ZINC001401207732    0.0600
     46 H46         8.1412    1.8743   50.7056 H       1  ZINC001401207732    0.2000
@<TRIPOS>BOND
     1     1     2    1
     2     1    25    1
     3     1    26    1
     4     1    27    1
     5     2    24    1
     6     2     3    2
     7     3     4    1
     8     3    22    1
     9     4     5    2
    10     4     6   am
    11     6     7    1
    12     6     8    1
    13     7    28    1
    14     7    29    1
    15     7    30    1
    16     8     9    1
    17     8    10    1
    18     8    11    1
    19    10    31    1
    20    10    32    1
    21    10    33    1
    22    11    12    1
    23    11    34    1
    24    11    35    1
    25    12    13    1
    26    12    36    1
    27    13    14    1
    28    13    37    1
    29    13    38    1
    30    14    21    1
    31    14    15    2
    32    15    16    1
    33    16    17    1
    34    16    20    2
    35    17    18    1
    36    17    19    1
    37    17    39    1
    38    18    40    1
    39    18    41    1
    40    18    42    1
    41    19    43    1
    42    19    44    1
    43    19    45    1
    44    20    21    1
    45    22    23    1
    46    23    24    2
    47    23    46    1
@<TRIPOS>SUBSTRUCTURE
     1 ZINC001401207732        1 TEMP              0 ****  ****    0 ROOT


##########                                Name:    ZINC001318556452
##########                DOCK_Rotatable_Bonds:                   4
##########                         Heavy_Atoms:                  26
##########                    Molecular_Weight:             368.456
##########                DOCK_Rotatable_Bonds:                   4
##########                       Formal_Charge:          -0.0200005
##########                     HBond_Acceptors:                   6
##########                        HBond_Donors:                   1
##########                         Heavy_Atoms:                  26
##########                          Grid_Score:          -27.512518
##########                     Grid_vdw_energy:          -24.991726
##########                      Grid_es_energy:           -2.520791
##########           Internal_energy_repulsive:           19.091263

@<TRIPOS>MOLECULE
ZINC001318556452
 46 48 1 0 0
SMALL
USER_CHARGES


@<TRIPOS>ATOM
      1 C1        -10.2698    1.4564   59.1948 C.3     1  ZINC001318556452   -0.1300
      2 C2        -10.1825   -0.0100   58.8588 C.ar    1  ZINC001318556452   -0.1000
      3 C3        -10.4772   -0.4454   57.5821 C.ar    1  ZINC001318556452   -0.0500
      4 C4        -10.8869    0.5469   56.5244 C.3     1  ZINC001318556452   -0.4100
      5 S5        -11.6683   -0.3306   55.1423 S.o     1  ZINC001318556452    1.2500
      6 C6        -12.0847    1.0087   53.9918 C.3     1  ZINC001318556452   -0.4900
      7 O7        -12.8620   -0.9563   55.5928 O.2     1  ZINC001318556452   -0.8400
      8 C8        -10.3965   -1.7910   57.2726 C.ar    1  ZINC001318556452   -0.1200
      9 C9        -10.0214   -2.7047   58.2402 C.ar    1  ZINC001318556452   -0.1000
     10 C10        -9.7261   -2.2761   59.5196 C.ar    1  ZINC001318556452   -0.1200
     11 C11        -9.7998   -0.9248   59.8319 C.ar    1  ZINC001318556452    0.1400
     12 N12        -9.5012   -0.4876   61.1257 N.am    1  ZINC001318556452   -0.6600
     13 C13       -10.2136   -0.9468   62.1735 C.2     1  ZINC001318556452    0.5600
     14 O14       -11.1154   -1.7410   61.9937 O.2     1  ZINC001318556452   -0.5000
     15 C15        -9.8968   -0.4831   63.5457 C.2     1  ZINC001318556452   -0.0300
     16 C16        -9.1431   -1.2520   64.3859 C.2     1  ZINC001318556452   -0.1600
     17 C17        -8.8474   -0.7674   65.7320 C.2     1  ZINC001318556452    0.5300
     18 O18        -8.1752   -1.4528   66.4820 O.2     1  ZINC001318556452   -0.5200
     19 N19        -9.3055    0.4235   66.1553 N.am    1  ZINC001318556452   -0.5200
     20 C20        -8.9861    0.8741   67.5122 C.3     1  ZINC001318556452    0.0600
     21 C21       -10.0693    1.2293   65.3383 C.ar    1  ZINC001318556452    0.1800
     22 C22       -10.5340    2.4594   65.7960 C.ar    1  ZINC001318556452   -0.1700
     23 C23       -11.2965    3.2550   64.9689 C.ar    1  ZINC001318556452   -0.0600
     24 C24       -11.6072    2.8423   63.6805 C.ar    1  ZINC001318556452   -0.1500
     25 C25       -11.1619    1.6392   63.2107 C.ar    1  ZINC001318556452   -0.0600
     26 C26       -10.3821    0.8183   64.0303 C.ar    1  ZINC001318556452   -0.1100
     27 H27        -9.3076    1.9311   59.0028 H       1  ZINC001318556452    0.0800
     28 H28       -11.0359    1.9256   58.5775 H       1  ZINC001318556452    0.0800
     29 H29       -10.5292    1.5733   60.2470 H       1  ZINC001318556452    0.0700
     30 H30       -11.5944    1.2592   56.9490 H       1  ZINC001318556452    0.1000
     31 H31       -10.0064    1.0795   56.1652 H       1  ZINC001318556452    0.1300
     32 H32       -11.1742    1.5298   53.6960 H       1  ZINC001318556452    0.1100
     33 H33       -12.5679    0.5915   53.1083 H       1  ZINC001318556452    0.1100
     34 H34       -12.7621    1.7094   54.4798 H       1  ZINC001318556452    0.0800
     35 H35       -10.6272   -2.1288   56.2731 H       1  ZINC001318556452    0.1200
     36 H36        -9.9596   -3.7548   57.9954 H       1  ZINC001318556452    0.1300
     37 H37        -9.4336   -2.9904   60.2749 H       1  ZINC001318556452    0.1500
     38 H38        -8.7812    0.1464   61.2693 H       1  ZINC001318556452    0.4100
     39 H39        -8.7690   -2.2106   64.0579 H       1  ZINC001318556452    0.1600
     40 H40        -8.3795    0.1193   68.0125 H       1  ZINC001318556452    0.1000
     41 H41        -8.4321    1.8115   67.4627 H       1  ZINC001318556452    0.0800
     42 H42        -9.9095    1.0269   68.0710 H       1  ZINC001318556452    0.0800
     43 H43       -10.2977    2.7891   66.7970 H       1  ZINC001318556452    0.1400
     44 H44       -11.6561    4.2085   65.3264 H       1  ZINC001318556452    0.1300
     45 H45       -12.2064    3.4772   63.0446 H       1  ZINC001318556452    0.1300
     46 H46       -11.4079    1.3253   62.2070 H       1  ZINC001318556452    0.1700
@<TRIPOS>BOND
     1     1     2    1
     2     1    27    1
     3     1    28    1
     4     1    29    1
     5     2    11   ar
     6     2     3   ar
     7     3     4    1
     8     3     8   ar
     9     4     5    1
    10     4    30    1
    11     4    31    1
    12     5     6    1
    13     5     7    2
    14     6    32    1
    15     6    33    1
    16     6    34    1
    17     8     9   ar
    18     8    35    1
    19     9    10   ar
    20     9    36    1
    21    10    11   ar
    22    10    37    1
    23    11    12    1
    24    12    13   am
    25    12    38    1
    26    13    14    2
    27    13    15    1
    28    15    26    1
    29    15    16    2
    30    16    17    1
    31    16    39    1
    32    17    18    2
    33    17    19   am
    34    19    20    1
    35    19    21    1
    36    20    40    1
    37    20    41    1
    38    20    42    1
    39    21    26   ar
    40    21    22   ar
    41    22    23   ar
    42    22    43    1
    43    23    24   ar
    44    23    44    1
    45    24    25   ar
    46    24    45    1
    47    25    26   ar
    48    25    46    1
@<TRIPOS>SUBSTRUCTURE
     1 ZINC001318556452        1 TEMP              0 ****  ****    0 ROOT


##########                                Name:    ZINC000805177769
##########                DOCK_Rotatable_Bonds:                  10
##########                         Heavy_Atoms:                  30
##########                    Molecular_Weight:             417.548
##########                DOCK_Rotatable_Bonds:                  10
##########                       Formal_Charge:           0.0199995
##########                     HBond_Acceptors:                   7
##########                        HBond_Donors:                   1
##########                         Heavy_Atoms:                  30
##########                          Grid_Score:          -27.494473
##########                     Grid_vdw_energy:          -27.441259
##########                      Grid_es_energy:           -0.053213
##########           Internal_energy_repulsive:           35.107960

@<TRIPOS>MOLECULE
ZINC000805177769
 65 66 1 0 0
SMALL
USER_CHARGES


@<TRIPOS>ATOM
      1 C1        -16.5246   -6.7251   52.9624 C.3     1  ZINC000805177769   -0.1200
      2 C2        -16.2306   -5.7619   54.0836 C.ar    1  ZINC000805177769   -0.0800
      3 C3        -16.7340   -4.4756   54.0393 C.ar    1  ZINC000805177769   -0.1200
      4 C4        -16.4643   -3.5919   55.0680 C.ar    1  ZINC000805177769   -0.1100
      5 C5        -15.6915   -3.9951   56.1405 C.ar    1  ZINC000805177769   -0.0900
      6 C6        -15.3971   -3.0318   57.2614 C.3     1  ZINC000805177769   -0.0900
      7 C7        -14.0713   -2.3193   56.9865 C.3     1  ZINC000805177769    0.1500
      8 H8        -13.2898   -3.0594   56.8144 H       1  ZINC000805177769    0.1000
      9 C9        -13.6977   -1.4541   58.1918 C.3     1  ZINC000805177769   -0.1700
     10 N10       -14.2098   -1.4707   55.8004 N.am    1  ZINC000805177769   -0.6900
     11 C11       -13.1642   -1.3015   54.9669 C.2     1  ZINC000805177769    0.5100
     12 O12       -12.1076   -1.8509   55.1998 O.2     1  ZINC000805177769   -0.5100
     13 C13       -13.3061   -0.4373   53.7560 C.2     1  ZINC000805177769    0.5200
     14 O14       -14.3881   -0.3166   53.2200 O.2     1  ZINC000805177769   -0.5200
     15 N15       -12.2323    0.2082   53.2592 N.am    1  ZINC000805177769   -0.5900
     16 C16       -12.2300    1.0860   52.0798 C.3     1  ZINC000805177769    0.1100
     17 C17       -10.7920    1.6190   51.9081 C.3     1  ZINC000805177769   -0.1500
     18 C18       -10.1907    1.4610   53.3297 C.3     1  ZINC000805177769    0.1500
     19 H19       -10.4693    2.3001   53.9672 H       1  ZINC000805177769    0.1200
     20 N20        -8.7346    1.3110   53.2703 N.am    1  ZINC000805177769   -0.5900
     21 C21        -8.1370    0.3067   52.3867 C.3     1  ZINC000805177769    0.0800
     22 C22        -7.9448    2.0968   54.0286 C.2     1  ZINC000805177769    0.6600
     23 O23        -6.7371    1.9713   53.9805 O.2     1  ZINC000805177769   -0.5600
     24 O24        -8.4938    3.0208   54.8395 O.3     1  ZINC000805177769   -0.3600
     25 C25        -8.0249    3.0541   56.2134 C.3     1  ZINC000805177769    0.1400
     26 C26        -6.6773    3.7761   56.2750 C.3     1  ZINC000805177769   -0.1800
     27 C27        -9.0420    3.7977   57.0814 C.3     1  ZINC000805177769   -0.1400
     28 C28        -7.8614    1.6238   56.7313 C.3     1  ZINC000805177769   -0.1800
     29 C29       -10.8667    0.1559   53.8122 C.3     1  ZINC000805177769    0.0900
     30 C30       -15.1890   -5.2823   56.1854 C.ar    1  ZINC000805177769   -0.0800
     31 C31       -14.3467   -5.7221   57.3551 C.3     1  ZINC000805177769   -0.1200
     32 C32       -15.4618   -6.1669   55.1590 C.ar    1  ZINC000805177769   -0.1200
     33 H33       -17.4439   -7.2681   53.1816 H       1  ZINC000805177769    0.0700
     34 H34       -16.6424   -6.1726   52.0302 H       1  ZINC000805177769    0.0700
     35 H35       -15.7001   -7.4313   52.8644 H       1  ZINC000805177769    0.0700
     36 H36       -17.3379   -4.1605   53.2012 H       1  ZINC000805177769    0.1200
     37 H37       -16.8572   -2.5865   55.0330 H       1  ZINC000805177769    0.1200
     38 H38       -16.1981   -2.2957   57.3278 H       1  ZINC000805177769    0.0800
     39 H39       -15.3274   -3.5788   58.2017 H       1  ZINC000805177769    0.0900
     40 H40       -14.4792   -0.7140   58.3638 H       1  ZINC000805177769    0.0600
     41 H41       -13.5946   -2.0855   59.0743 H       1  ZINC000805177769    0.0700
     42 H42       -12.7532   -0.9464   57.9959 H       1  ZINC000805177769    0.0600
     43 H43       -15.0541   -1.0305   55.6148 H       1  ZINC000805177769    0.4100
     44 H44       -12.5235    0.5199   51.1957 H       1  ZINC000805177769    0.0900
     45 H45       -12.9174    1.9174   52.2352 H       1  ZINC000805177769    0.0900
     46 H46       -10.2406    1.0157   51.1869 H       1  ZINC000805177769    0.0900
     47 H47       -10.8023    2.6668   51.6081 H       1  ZINC000805177769    0.0900
     48 H48        -7.9486    0.7494   51.4087 H       1  ZINC000805177769    0.0600
     49 H49        -7.1972   -0.0411   52.8153 H       1  ZINC000805177769    0.0800
     50 H50        -8.8209   -0.5352   52.2788 H       1  ZINC000805177769    0.0800
     51 H51        -6.7938    4.7951   55.9060 H       1  ZINC000805177769    0.0600
     52 H52        -6.3254    3.8010   57.3063 H       1  ZINC000805177769    0.0700
     53 H53        -5.9528    3.2463   55.6566 H       1  ZINC000805177769    0.0900
     54 H54       -10.0021    3.2834   57.0375 H       1  ZINC000805177769    0.0700
     55 H55        -8.6901    3.8227   58.1127 H       1  ZINC000805177769    0.0800
     56 H56        -9.1585    4.8168   56.7124 H       1  ZINC000805177769    0.0700
     57 H57        -7.1368    1.0941   56.1130 H       1  ZINC000805177769    0.0900
     58 H58        -7.5095    1.6488   57.7626 H       1  ZINC000805177769    0.0700
     59 H59        -8.8215    1.1095   56.6874 H       1  ZINC000805177769    0.0600
     60 H60       -10.8957    0.1239   54.9012 H       1  ZINC000805177769    0.0900
     61 H61       -10.3374   -0.7128   53.4203 H       1  ZINC000805177769    0.0800
     62 H62       -14.9900   -6.1414   58.1287 H       1  ZINC000805177769    0.0700
     63 H63       -13.6341   -6.4783   57.0259 H       1  ZINC000805177769    0.0700
     64 H64       -13.8069   -4.8647   57.7569 H       1  ZINC000805177769    0.0700
     65 H65       -15.0693   -7.1724   55.1939 H       1  ZINC000805177769    0.1200
@<TRIPOS>BOND
     1     1     2    1
     2     1    33    1
     3     1    34    1
     4     1    35    1
     5     2    32   ar
     6     2     3   ar
     7     3     4   ar
     8     3    36    1
     9     4     5   ar
    10     4    37    1
    11     5     6    1
    12     5    30   ar
    13     6     7    1
    14     6    38    1
    15     6    39    1
    16     7     8    1
    17     7     9    1
    18     7    10    1
    19     9    40    1
    20     9    41    1
    21     9    42    1
    22    10    11   am
    23    10    43    1
    24    11    12    2
    25    11    13    1
    26    13    14    2
    27    13    15   am
    28    15    29    1
    29    15    16    1
    30    16    17    1
    31    16    44    1
    32    16    45    1
    33    17    18    1
    34    17    46    1
    35    17    47    1
    36    18    19    1
    37    18    20    1
    38    18    29    1
    39    20    21    1
    40    20    22   am
    41    21    48    1
    42    21    49    1
    43    21    50    1
    44    22    23    2
    45    22    24    1
    46    24    25    1
    47    25    26    1
    48    25    27    1
    49    25    28    1
    50    26    51    1
    51    26    52    1
    52    26    53    1
    53    27    54    1
    54    27    55    1
    55    27    56    1
    56    28    57    1
    57    28    58    1
    58    28    59    1
    59    29    60    1
    60    29    61    1
    61    30    31    1
    62    30    32   ar
    63    31    62    1
    64    31    63    1
    65    31    64    1
    66    32    65    1
@<TRIPOS>SUBSTRUCTURE
     1 ZINC000805177769        1 TEMP              0 ****  ****    0 ROOT


##########                                Name:    ZINC001231746020
##########                DOCK_Rotatable_Bonds:                   3
##########                         Heavy_Atoms:                  19
##########                    Molecular_Weight:             348.667
##########                DOCK_Rotatable_Bonds:                   3
##########                       Formal_Charge:          -0.0399997
##########                     HBond_Acceptors:                   4
##########                        HBond_Donors:                   2
##########                         Heavy_Atoms:                  19
##########                          Grid_Score:          -27.464115
##########                     Grid_vdw_energy:          -20.729242
##########                      Grid_es_energy:           -6.734872
##########           Internal_energy_repulsive:           13.212147

@<TRIPOS>MOLECULE
ZINC001231746020
 38 39 1 0 0
SMALL
USER_CHARGES


@<TRIPOS>ATOM
      1 C1        -11.0843   -3.1823   57.5287 C.3     1  ZINC001231746020   -0.1500
      2 C2        -11.0610   -2.2213   58.7190 C.3     1  ZINC001231746020   -0.0900
      3 H3        -12.0814   -2.0169   59.0434 H       1  ZINC001231746020    0.0800
      4 C4        -10.2860   -2.8398   59.8517 C.3     1  ZINC001231746020   -0.1400
      5 C5        -10.7895   -2.4167   61.2434 C.3     1  ZINC001231746020   -0.0100
      6 N6        -11.1054   -0.9758   61.3448 N.4     1  ZINC001231746020   -0.3800
      7 H7        -12.0070   -0.8069   60.9246 H       1  ZINC001231746020    0.4100
      8 C8        -11.1609   -0.5973   62.7631 C.3     1  ZINC001231746020    0.0700
      9 C9        -12.5970   -0.3965   63.1736 C.ar    1  ZINC001231746020   -0.3100
     10 C10       -12.8943    0.3326   64.3098 C.ar    1  ZINC001231746020   -0.0300
     11 C11       -14.2111    0.5187   64.6886 C.ar    1  ZINC001231746020   -0.1600
     12 Cl12      -14.5836    1.4343   66.1156 Cl      1  ZINC001231746020   -0.0800
     13 C13       -15.2345   -0.0277   63.9269 C.ar    1  ZINC001231746020    0.3100
     14 O14       -16.5300    0.1541   64.2966 O.3     1  ZINC001231746020   -0.6300
     15 C15       -14.9330   -0.7595   62.7870 C.ar    1  ZINC001231746020   -0.2100
     16 Br16      -16.3241   -1.5059   61.7460 Br      1  ZINC001231746020   -0.0600
     17 C17       -13.6151   -0.9372   62.4098 C.ar    1  ZINC001231746020   -0.0200
     18 C18       -10.1188   -0.1599   60.6794 C.3     1  ZINC001231746020   -0.0200
     19 C19       -10.6434    0.1593   59.2701 C.3     1  ZINC001231746020   -0.1800
     20 C20       -10.3704   -0.8979   58.3043 C.3     1  ZINC001231746020    0.1000
     21 H21       -10.7402   -0.5927   57.3255 H       1  ZINC001231746020    0.0700
     22 O22        -8.9592   -1.1094   58.2266 O.3     1  ZINC001231746020   -0.5600
     23 H23       -11.5602   -4.1169   57.8256 H       1  ZINC001231746020    0.0600
     24 H24       -10.0634   -3.3818   57.2029 H       1  ZINC001231746020    0.0700
     25 H25       -11.6458   -2.7327   56.7097 H       1  ZINC001231746020    0.0600
     26 H26       -10.3550   -3.9245   59.7704 H       1  ZINC001231746020    0.1000
     27 H27        -9.2395   -2.5495   59.7581 H       1  ZINC001231746020    0.1000
     28 H28       -11.6876   -2.9881   61.4779 H       1  ZINC001231746020    0.1200
     29 H29       -10.0233   -2.6585   61.9799 H       1  ZINC001231746020    0.1200
     30 H30       -10.7173   -1.3882   63.3679 H       1  ZINC001231746020    0.1200
     31 H31       -10.6071    0.3294   62.9138 H       1  ZINC001231746020    0.1200
     32 H32       -12.0973    0.7574   64.9021 H       1  ZINC001231746020    0.1100
     33 H33       -13.3801   -1.5023   61.5199 H       1  ZINC001231746020    0.1100
     34 H34        -9.9694    0.7654   61.2357 H       1  ZINC001231746020    0.1400
     35 H35        -9.1770   -0.7040   60.6088 H       1  ZINC001231746020    0.1300
     36 H36       -11.7210    0.3147   59.3241 H       1  ZINC001231746020    0.0900
     37 H37       -10.1745    1.0795   58.9216 H       1  ZINC001231746020    0.1100
     38 H38        -8.5580   -1.3952   59.0586 H       1  ZINC001231746020    0.3900
@<TRIPOS>BOND
     1     1     2    1
     2     1    23    1
     3     1    24    1
     4     1    25    1
     5     2     3    1
     6     2    20    1
     7     2     4    1
     8     4     5    1
     9     4    26    1
    10     4    27    1
    11     5     6    1
    12     5    28    1
    13     5    29    1
    14     6     7    1
    15     6     8    1
    16     6    18    1
    17     8     9    1
    18     8    30    1
    19     8    31    1
    20     9    17   ar
    21     9    10   ar
    22    10    11   ar
    23    10    32    1
    24    11    12    1
    25    11    13   ar
    26    13    14    1
    27    13    15   ar
    28    15    16    1
    29    15    17   ar
    30    17    33    1
    31    18    19    1
    32    18    34    1
    33    18    35    1
    34    19    20    1
    35    19    36    1
    36    19    37    1
    37    20    21    1
    38    20    22    1
    39    22    38    1
@<TRIPOS>SUBSTRUCTURE
     1 ZINC001231746020        1 TEMP              0 ****  ****    0 ROOT


##########                                Name:    ZINC000373864439
##########                DOCK_Rotatable_Bonds:                   7
##########                         Heavy_Atoms:                  23
##########                    Molecular_Weight:              344.45
##########                DOCK_Rotatable_Bonds:                   7
##########                       Formal_Charge:          -0.0300001
##########                     HBond_Acceptors:                   7
##########                        HBond_Donors:                   1
##########                         Heavy_Atoms:                  23
##########                          Grid_Score:          -27.457533
##########                     Grid_vdw_energy:          -25.803753
##########                      Grid_es_energy:           -1.653780
##########           Internal_energy_repulsive:           23.378963

@<TRIPOS>MOLECULE
ZINC000373864439
 48 49 1 0 0
SMALL
USER_CHARGES


@<TRIPOS>ATOM
      1 C1        -11.9459    1.2455   62.9241 C.3     1  ZINC000373864439   -0.1500
      2 C2        -10.4406    1.5110   62.9904 C.3     1  ZINC000373864439   -0.6300
      3 S3         -9.6873    0.4166   64.2254 S.o2    1  ZINC000373864439    2.6100
      4 O4         -8.5816    1.0551   64.8492 O.2     1  ZINC000373864439   -0.9500
      5 O5        -10.6904   -0.2300   64.9967 O.2     1  ZINC000373864439   -0.9600
      6 N6         -9.0063   -0.8031   63.3361 N.am    1  ZINC000373864439   -1.1200
      7 C7         -9.8465   -1.6385   62.4745 C.3     1  ZINC000373864439    0.1100
      8 C8         -9.5317   -1.3367   61.0079 C.3     1  ZINC000373864439    0.0500
      9 N9        -10.4879   -2.0446   60.1462 N.3     1  ZINC000373864439   -0.5300
     10 C10        -9.8043   -3.0344   59.3038 C.3     1  ZINC000373864439    0.0400
     11 C11       -10.8418   -3.8501   58.5289 C.3     1  ZINC000373864439   -0.1300
     12 C12       -11.6815   -2.9076   57.6624 C.3     1  ZINC000373864439    0.1800
     13 F13       -10.8564   -2.2719   56.7283 F       1  ZINC000373864439   -0.2100
     14 C14       -12.7429   -3.6979   56.9413 C.ar    1  ZINC000373864439   -0.1500
     15 C15       -12.9108   -5.0410   57.2159 C.ar    1  ZINC000373864439   -0.0700
     16 C16       -13.8844   -5.7668   56.5542 C.ar    1  ZINC000373864439   -0.1600
     17 C17       -14.6921   -5.1503   55.6169 C.ar    1  ZINC000373864439   -0.0700
     18 C18       -14.5284   -3.8068   55.3389 C.ar    1  ZINC000373864439   -0.2100
     19 C19       -13.5562   -3.0753   56.0051 C.ar    1  ZINC000373864439    0.1400
     20 O20       -13.3931   -1.7538   55.7335 O.3     1  ZINC000373864439   -0.3100
     21 C21       -14.5761   -0.9920   55.4843 C.3     1  ZINC000373864439    0.0200
     22 C22       -12.3437   -1.8573   58.5584 C.3     1  ZINC000373864439   -0.1300
     23 C23       -11.2628   -1.0994   59.3323 C.3     1  ZINC000373864439    0.0600
     24 H24       -12.3920    1.4375   63.9000 H       1  ZINC000373864439    0.0700
     25 H25       -12.3985    1.9031   62.1820 H       1  ZINC000373864439    0.0800
     26 H26       -12.1196    0.2068   62.6432 H       1  ZINC000373864439    0.0700
     27 H27        -9.9944    1.3190   62.0146 H       1  ZINC000373864439    0.1300
     28 H28       -10.2668    2.5498   63.2713 H       1  ZINC000373864439    0.1300
     29 H29        -8.0510   -0.9644   63.3857 H       1  ZINC000373864439    0.4200
     30 H30        -9.6457   -2.6899   62.6803 H       1  ZINC000373864439    0.0700
     31 H31       -10.8966   -1.4235   62.6723 H       1  ZINC000373864439    0.0900
     32 H32        -9.6100   -0.2637   60.8327 H       1  ZINC000373864439    0.0900
     33 H33        -8.5196   -1.6696   60.7776 H       1  ZINC000373864439    0.0400
     34 H34        -9.1473   -2.5217   58.6014 H       1  ZINC000373864439    0.0400
     35 H35        -9.2142   -3.7010   59.9326 H       1  ZINC000373864439    0.0900
     36 H36       -10.3336   -4.5741   57.8921 H       1  ZINC000373864439    0.0800
     37 H37       -11.4907   -4.3742   59.2307 H       1  ZINC000373864439    0.1000
     38 H38       -12.2811   -5.5250   57.9477 H       1  ZINC000373864439    0.1300
     39 H39       -14.0136   -6.8171   56.7699 H       1  ZINC000373864439    0.1300
     40 H40       -15.4515   -5.7193   55.1012 H       1  ZINC000373864439    0.1300
     41 H41       -15.1595   -3.3257   54.6063 H       1  ZINC000373864439    0.1300
     42 H42       -14.3051    0.0442   55.2817 H       1  ZINC000373864439    0.1000
     43 H43       -15.0998   -1.4057   54.6223 H       1  ZINC000373864439    0.0600
     44 H44       -15.2259   -1.0334   56.3584 H       1  ZINC000373864439    0.0600
     45 H45       -12.9087   -1.1575   57.9425 H       1  ZINC000373864439    0.0800
     46 H46       -13.0163   -2.3500   59.2606 H       1  ZINC000373864439    0.1000
     47 H47       -11.7319   -0.3604   59.9820 H       1  ZINC000373864439    0.0800
     48 H48       -10.5989   -0.5956   58.6299 H       1  ZINC000373864439    0.0400
@<TRIPOS>BOND
     1     1     2    1
     2     1    24    1
     3     1    25    1
     4     1    26    1
     5     2     3    1
     6     2    27    1
     7     2    28    1
     8     3     4    2
     9     3     5    2
    10     3     6   am
    11     6     7    1
    12     6    29    1
    13     7     8    1
    14     7    30    1
    15     7    31    1
    16     8     9    1
    17     8    32    1
    18     8    33    1
    19     9    23    1
    20     9    10    1
    21    10    11    1
    22    10    34    1
    23    10    35    1
    24    11    12    1
    25    11    36    1
    26    11    37    1
    27    12    13    1
    28    12    14    1
    29    12    22    1
    30    14    19   ar
    31    14    15   ar
    32    15    16   ar
    33    15    38    1
    34    16    17   ar
    35    16    39    1
    36    17    18   ar
    37    17    40    1
    38    18    19   ar
    39    18    41    1
    40    19    20    1
    41    20    21    1
    42    21    42    1
    43    21    43    1
    44    21    44    1
    45    22    23    1
    46    22    45    1
    47    22    46    1
    48    23    47    1
    49    23    48    1
@<TRIPOS>SUBSTRUCTURE
     1 ZINC000373864439        1 TEMP              0 ****  ****    0 ROOT


##########                                Name:    ZINC001023407238
##########                DOCK_Rotatable_Bonds:                   7
##########                         Heavy_Atoms:                  25
##########                    Molecular_Weight:             349.387
##########                DOCK_Rotatable_Bonds:                   7
##########                       Formal_Charge:          -0.0300008
##########                     HBond_Acceptors:                   8
##########                        HBond_Donors:                   2
##########                         Heavy_Atoms:                  25
##########                          Grid_Score:          -27.455616
##########                     Grid_vdw_energy:          -24.720072
##########                      Grid_es_energy:           -2.735544
##########           Internal_energy_repulsive:           21.876280

@<TRIPOS>MOLECULE
ZINC001023407238
 48 50 1 0 0
SMALL
USER_CHARGES


@<TRIPOS>ATOM
      1 C1        -13.7365    3.7323   62.1006 C.3     1  ZINC001023407238   -0.0900
      2 C2        -14.5686    2.4772   62.1596 C.2     1  ZINC001023407238   -0.1100
      3 C3        -14.2673    1.3266   62.8568 C.2     1  ZINC001023407238   -0.0500
      4 C4        -13.0745    1.0986   63.6796 C.2     1  ZINC001023407238    0.6100
      5 O5        -13.0637    1.4478   64.8453 O.2     1  ZINC001023407238   -0.5100
      6 N6        -11.9907    0.5025   63.1445 N.am    1  ZINC001023407238   -0.6100
      7 C7        -10.7345    0.2141   63.8520 C.3     1  ZINC001023407238    0.0800
      8 C8         -9.7978   -0.4955   62.8516 C.3     1  ZINC001023407238    0.0900
      9 H9         -9.1166    0.2181   62.3883 H       1  ZINC001023407238    0.0800
     10 O10        -9.0691   -1.5420   63.4964 O.3     1  ZINC001023407238   -0.5500
     11 C11       -10.7838   -1.0739   61.8024 C.3     1  ZINC001023407238    0.1400
     12 H12       -11.2051   -2.0200   62.1421 H       1  ZINC001023407238    0.1200
     13 N13       -10.1324   -1.2298   60.4996 N.am    1  ZINC001023407238   -0.7200
     14 C14       -10.7866   -1.8320   59.4868 C.2     1  ZINC001023407238    0.5200
     15 O15       -11.9142   -2.2461   59.6545 O.2     1  ZINC001023407238   -0.5300
     16 C16       -10.1171   -1.9908   58.1460 C.3     1  ZINC001023407238   -0.1300
     17 C17       -10.4485   -3.3693   57.5707 C.3     1  ZINC001023407238   -0.1100
     18 H18        -9.7694   -3.6215   56.7561 H       1  ZINC001023407238    0.1100
     19 C19       -10.4098   -4.4505   58.6745 C.3     1  ZINC001023407238    0.0600
     20 O20       -11.4656   -5.3860   58.3045 O.3     1  ZINC001023407238   -0.3500
     21 C21       -12.4475   -4.7360   57.6639 C.2     1  ZINC001023407238    0.4800
     22 O22       -13.5835   -5.1318   57.5499 O.2     1  ZINC001023407238   -0.4600
     23 C23       -11.9188   -3.4303   57.1003 C.3     1  ZINC001023407238   -0.1800
     24 C24       -11.8705    0.0261   61.7545 C.3     1  ZINC001023407238    0.1000
     25 N25       -15.2899    0.4309   62.6406 N.pl3   1  ZINC001023407238   -0.4200
     26 C26       -15.3726   -0.9220   63.1965 C.3     1  ZINC001023407238    0.0700
     27 C27       -16.2075    1.0089   61.8277 C.2     1  ZINC001023407238    0.0100
     28 C28       -15.7947    2.2625   61.5227 C.2     1  ZINC001023407238   -0.2000
     29 H29       -14.0286    4.4004   62.9107 H       1  ZINC001023407238    0.0600
     30 H30       -12.6824    3.4746   62.2044 H       1  ZINC001023407238    0.0600
     31 H31       -13.8964    4.2296   61.1439 H       1  ZINC001023407238    0.0700
     32 H32       -10.2783    1.1440   64.1913 H       1  ZINC001023407238    0.0800
     33 H33       -10.9298   -0.4378   64.7034 H       1  ZINC001023407238    0.0800
     34 H34        -8.1224   -1.5412   63.2995 H       1  ZINC001023407238    0.3900
     35 H35        -9.2302   -0.8996   60.3658 H       1  ZINC001023407238    0.4100
     36 H36       -10.4762   -1.2177   57.4667 H       1  ZINC001023407238    0.1000
     37 H37        -9.0378   -1.8968   58.2654 H       1  ZINC001023407238    0.1100
     38 H38        -9.4422   -4.9521   58.6822 H       1  ZINC001023407238    0.1200
     39 H39       -10.6178   -4.0077   59.6486 H       1  ZINC001023407238    0.0800
     40 H40       -12.4797   -2.5877   57.5049 H       1  ZINC001023407238    0.1100
     41 H41       -11.9747   -3.4366   56.0117 H       1  ZINC001023407238    0.1200
     42 H42       -12.8170   -0.3905   61.4096 H       1  ZINC001023407238    0.0900
     43 H43       -11.5554    0.8427   61.1050 H       1  ZINC001023407238    0.0800
     44 H44       -15.9629   -0.9029   64.1127 H       1  ZINC001023407238    0.0800
     45 H45       -15.8473   -1.5840   62.4722 H       1  ZINC001023407238    0.0900
     46 H46       -14.3693   -1.2856   63.4182 H       1  ZINC001023407238    0.0800
     47 H47       -17.1206    0.5469   61.4826 H       1  ZINC001023407238    0.1700
     48 H48       -16.3164    2.9682   60.8933 H       1  ZINC001023407238    0.1400
@<TRIPOS>BOND
     1     1     2    1
     2     1    29    1
     3     1    30    1
     4     1    31    1
     5     2    28    1
     6     2     3    2
     7     3     4    1
     8     3    25    1
     9     4     5    2
    10     4     6   am
    11     6    24    1
    12     6     7    1
    13     7     8    1
    14     7    32    1
    15     7    33    1
    16     8     9    1
    17     8    10    1
    18     8    11    1
    19    10    34    1
    20    11    12    1
    21    11    13    1
    22    11    24    1
    23    13    14   am
    24    13    35    1
    25    14    15    2
    26    14    16    1
    27    16    17    1
    28    16    36    1
    29    16    37    1
    30    17    18    1
    31    17    23    1
    32    17    19    1
    33    19    20    1
    34    19    38    1
    35    19    39    1
    36    20    21    1
    37    21    22    2
    38    21    23    1
    39    23    40    1
    40    23    41    1
    41    24    42    1
    42    24    43    1
    43    25    26    1
    44    25    27    1
    45    26    44    1
    46    26    45    1
    47    26    46    1
    48    27    28    2
    49    27    47    1
    50    28    48    1
@<TRIPOS>SUBSTRUCTURE
     1 ZINC001023407238        1 TEMP              0 ****  ****    0 ROOT


##########                                Name:    ZINC001120957943
##########                DOCK_Rotatable_Bonds:                   4
##########                         Heavy_Atoms:                  27
##########                    Molecular_Weight:             396.802
##########                DOCK_Rotatable_Bonds:                   4
##########                       Formal_Charge:          -0.0199996
##########                     HBond_Acceptors:                  10
##########                        HBond_Donors:                   0
##########                         Heavy_Atoms:                  27
##########                          Grid_Score:          -27.441257
##########                     Grid_vdw_energy:          -28.088516
##########                      Grid_es_energy:            0.647258
##########           Internal_energy_repulsive:            5.290285

@<TRIPOS>MOLECULE
ZINC001120957943
 43 46 1 0 0
SMALL
USER_CHARGES


@<TRIPOS>ATOM
      1 C1         -8.9864   -2.0289   58.8676 C.3     1  ZINC001120957943    0.0900
      2 N2         -9.9283   -2.2098   59.9750 N.pl3   1  ZINC001120957943   -0.6000
      3 C3        -10.7660   -3.4101   60.0356 C.3     1  ZINC001120957943    0.2200
      4 C4        -11.9683   -3.2291   59.1453 C.2     1  ZINC001120957943    0.1600
      5 N5        -12.0277   -3.4694   57.8605 N.2     1  ZINC001120957943   -0.2500
      6 N6        -13.2104   -3.2032   57.4220 N.2     1  ZINC001120957943   -0.2800
      7 C7        -13.9513   -2.7836   58.4022 C.2     1  ZINC001120957943    0.1700
      8 C8        -15.3963   -2.3536   58.3700 C.3     1  ZINC001120957943   -0.0300
      9 C9        -15.6931   -1.5795   59.6614 C.3     1  ZINC001120957943   -0.1300
     10 C10       -15.1766   -2.3791   60.8610 C.3     1  ZINC001120957943   -0.1500
     11 H11       -15.5457   -3.4030   60.8008 H       1  ZINC001120957943    0.1300
     12 C12       -15.6738   -1.7334   62.1558 C.3     1  ZINC001120957943    0.4600
     13 F13       -17.0701   -1.6507   62.1295 F       1  ZINC001120957943   -0.1700
     14 F14       -15.2733   -2.5105   63.2482 F       1  ZINC001120957943   -0.1800
     15 F15       -15.1327   -0.4487   62.2740 F       1  ZINC001120957943   -0.1800
     16 C16       -13.6435   -2.3876   60.8512 C.3     1  ZINC001120957943    0.1100
     17 N17       -13.1861   -2.7947   59.5230 N.pl3   1  ZINC001120957943   -0.4700
     18 C18       -10.0271   -1.2444   60.9662 C.ar    1  ZINC001120957943    0.3700
     19 C19       -10.6318   -0.0083   60.6783 C.ar    1  ZINC001120957943    0.0500
     20 N20       -10.7345    0.9161   61.6026 N.ar    1  ZINC001120957943   -0.3900
     21 C21       -10.2600    0.6840   62.8330 C.ar    1  ZINC001120957943    0.0400
     22 C22       -10.3582    1.6578   63.8411 C.ar    1  ZINC001120957943   -0.0600
     23 C23        -9.8674    1.3949   65.0844 C.ar    1  ZINC001120957943   -0.0400
     24 Cl24       -9.9914    2.6016   66.3262 Cl      1  ZINC001120957943   -0.0600
     25 C25        -9.2672    0.1698   65.3736 C.ar    1  ZINC001120957943   -0.0800
     26 C26        -9.1551   -0.7962   64.4216 C.ar    1  ZINC001120957943   -0.0800
     27 C27        -9.6498   -0.5604   63.1273 C.ar    1  ZINC001120957943    0.1400
     28 N28        -9.5575   -1.4953   62.1735 N.ar    1  ZINC001120957943   -0.4700
     29 H29        -9.4817   -1.5027   58.0516 H       1  ZINC001120957943    0.0700
     30 H30        -8.1312   -1.4461   59.2096 H       1  ZINC001120957943    0.0800
     31 H31        -8.6456   -3.0034   58.5177 H       1  ZINC001120957943    0.0700
     32 H32       -10.1905   -4.2721   59.6982 H       1  ZINC001120957943    0.1200
     33 H33       -11.0951   -3.5721   61.0620 H       1  ZINC001120957943    0.1000
     34 H34       -15.5697   -1.7104   57.5072 H       1  ZINC001120957943    0.1100
     35 H35       -16.0402   -3.2311   58.3107 H       1  ZINC001120957943    0.1000
     36 H36       -15.1944   -0.6109   59.6278 H       1  ZINC001120957943    0.0900
     37 H37       -16.7688   -1.4322   59.7583 H       1  ZINC001120957943    0.1000
     38 H38       -13.2709   -1.3892   61.0800 H       1  ZINC001120957943    0.1000
     39 H39       -13.2771   -3.0960   61.5942 H       1  ZINC001120957943    0.1100
     40 H40       -11.0150    0.1818   59.6867 H       1  ZINC001120957943    0.1700
     41 H41       -10.8206    2.6108   63.6311 H       1  ZINC001120957943    0.1500
     42 H42        -8.8856   -0.0149   66.3670 H       1  ZINC001120957943    0.1400
     43 H43        -8.6876   -1.7402   64.6596 H       1  ZINC001120957943    0.1500
@<TRIPOS>BOND
     1     1     2    1
     2     1    29    1
     3     1    30    1
     4     1    31    1
     5     2     3    1
     6     2    18    1
     7     3     4    1
     8     3    32    1
     9     3    33    1
    10     4    17    1
    11     4     5    2
    12     5     6    1
    13     6     7    2
    14     7    17    1
    15     7     8    1
    16     8     9    1
    17     8    34    1
    18     8    35    1
    19     9    10    1
    20     9    36    1
    21     9    37    1
    22    10    11    1
    23    10    12    1
    24    10    16    1
    25    12    13    1
    26    12    14    1
    27    12    15    1
    28    16    17    1
    29    16    38    1
    30    16    39    1
    31    18    28   ar
    32    18    19   ar
    33    19    20   ar
    34    19    40    1
    35    20    21   ar
    36    21    27   ar
    37    21    22   ar
    38    22    23   ar
    39    22    41    1
    40    23    24    1
    41    23    25   ar
    42    25    26   ar
    43    25    42    1
    44    26    27   ar
    45    26    43    1
    46    27    28   ar
@<TRIPOS>SUBSTRUCTURE
     1 ZINC001120957943        1 TEMP              0 ****  ****    0 ROOT


##########                                Name:    ZINC000191003171
##########                DOCK_Rotatable_Bonds:                   6
##########                         Heavy_Atoms:                  26
##########                    Molecular_Weight:             389.414
##########                DOCK_Rotatable_Bonds:                   6
##########                       Formal_Charge:          -0.0200002
##########                     HBond_Acceptors:                   8
##########                        HBond_Donors:                   1
##########                         Heavy_Atoms:                  26
##########                          Grid_Score:          -27.429523
##########                     Grid_vdw_energy:          -24.906240
##########                      Grid_es_energy:           -2.523282
##########           Internal_energy_repulsive:           15.234607

@<TRIPOS>MOLECULE
ZINC000191003171
 45 46 1 0 0
SMALL
USER_CHARGES


@<TRIPOS>ATOM
      1 C1        -10.4016    3.8331   58.1591 C.3     1  ZINC000191003171   -0.1200
      2 C2         -9.1909    3.2652   57.4642 C.ar    1  ZINC000191003171   -0.0800
      3 C3         -8.2349    4.1134   56.9382 C.ar    1  ZINC000191003171   -0.0700
      4 C4         -7.1240    3.5924   56.3007 C.ar    1  ZINC000191003171   -0.1800
      5 C5         -6.0818    4.5172   55.7268 C.3     1  ZINC000191003171    0.5100
      6 F6         -5.0726    4.7269   56.6727 F       1  ZINC000191003171   -0.1800
      7 F7         -5.5308    3.9423   54.5766 F       1  ZINC000191003171   -0.1800
      8 F8         -6.6746    5.7412   55.3981 F       1  ZINC000191003171   -0.1800
      9 C9         -6.9693    2.2234   56.1902 C.ar    1  ZINC000191003171   -0.0800
     10 C10        -7.9255    1.3750   56.7168 C.ar    1  ZINC000191003171   -0.1000
     11 C11        -9.0338    1.8957   57.3579 C.ar    1  ZINC000191003171   -0.0500
     12 C12       -10.0761    0.9709   57.9318 C.3     1  ZINC000191003171    0.0900
     13 N13       -10.0804    1.0865   59.3962 N.3     1  ZINC000191003171   -0.6800
     14 C14       -10.5863   -0.1435   60.0200 C.3     1  ZINC000191003171    0.1200
     15 H15       -10.1623   -1.0095   59.5120 H       1  ZINC000191003171    0.0600
     16 C16       -12.1117   -0.1824   59.9070 C.3     1  ZINC000191003171   -0.1400
     17 C17       -10.1895   -0.1695   61.4735 C.ar    1  ZINC000191003171   -0.0100
     18 C18        -9.5242   -1.2663   61.9885 C.ar    1  ZINC000191003171   -0.1300
     19 C19        -9.1594   -1.2916   63.3219 C.ar    1  ZINC000191003171    0.0100
     20 C20        -9.4597   -0.2203   64.1413 C.ar    1  ZINC000191003171   -0.7000
     21 S21        -8.9946   -0.2530   65.8406 S.o2    1  ZINC000191003171    2.5000
     22 C22        -7.4797    0.7420   65.9145 C.3     1  ZINC000191003171   -0.6500
     23 O23       -10.0597    0.4097   66.5081 O.2     1  ZINC000191003171   -0.9300
     24 O24        -8.7063   -1.6203   66.0988 O.2     1  ZINC000191003171   -0.9300
     25 C25       -10.1257    0.8792   63.6265 C.ar    1  ZINC000191003171    0.1900
     26 F26       -10.4197    1.9273   64.4267 F       1  ZINC000191003171   -0.1200
     27 C27       -10.4858    0.9056   62.2900 C.ar    1  ZINC000191003171   -0.1700
     28 H28       -10.1860    3.9588   59.2201 H       1  ZINC000191003171    0.0800
     29 H29       -10.6513    4.7999   57.7221 H       1  ZINC000191003171    0.0800
     30 H30       -11.2434    3.1512   58.0377 H       1  ZINC000191003171    0.0600
     31 H31        -8.3555    5.1831   57.0249 H       1  ZINC000191003171    0.1400
     32 H32        -6.1018    1.8165   55.6922 H       1  ZINC000191003171    0.1400
     33 H33        -7.8048    0.3053   56.6302 H       1  ZINC000191003171    0.1400
     34 H34       -11.0572    1.2432   57.5430 H       1  ZINC000191003171    0.0900
     35 H35        -9.8456   -0.0563   57.6492 H       1  ZINC000191003171    0.0500
     36 H36        -9.1613    1.3164   59.7435 H       1  ZINC000191003171    0.3500
     37 H37       -12.4872   -1.0950   60.3699 H       1  ZINC000191003171    0.0600
     38 H38       -12.5358    0.6838   60.4151 H       1  ZINC000191003171    0.0700
     39 H39       -12.3987   -0.1635   58.8557 H       1  ZINC000191003171    0.0600
     40 H40        -9.2895   -2.1042   61.3489 H       1  ZINC000191003171    0.1500
     41 H41        -8.6400   -2.1492   63.7232 H       1  ZINC000191003171    0.1600
     42 H42        -7.6926    1.7541   65.5703 H       1  ZINC000191003171    0.1300
     43 H43        -7.1174    0.7765   66.9419 H       1  ZINC000191003171    0.1400
     44 H44        -6.7189    0.2935   65.2757 H       1  ZINC000191003171    0.1300
     45 H45       -11.0049    1.7628   61.8873 H       1  ZINC000191003171    0.1500
@<TRIPOS>BOND
     1     1     2    1
     2     1    28    1
     3     1    29    1
     4     1    30    1
     5     2    11   ar
     6     2     3   ar
     7     3     4   ar
     8     3    31    1
     9     4     5    1
    10     4     9   ar
    11     5     6    1
    12     5     7    1
    13     5     8    1
    14     9    10   ar
    15     9    32    1
    16    10    11   ar
    17    10    33    1
    18    11    12    1
    19    12    13    1
    20    12    34    1
    21    12    35    1
    22    13    14    1
    23    13    36    1
    24    14    15    1
    25    14    16    1
    26    14    17    1
    27    16    37    1
    28    16    38    1
    29    16    39    1
    30    17    27   ar
    31    17    18   ar
    32    18    19   ar
    33    18    40    1
    34    19    20   ar
    35    19    41    1
    36    20    21    1
    37    20    25   ar
    38    21    22    1
    39    21    23    2
    40    21    24    2
    41    22    42    1
    42    22    43    1
    43    22    44    1
    44    25    26    1
    45    25    27   ar
    46    27    45    1
@<TRIPOS>SUBSTRUCTURE
     1 ZINC000191003171        1 TEMP              0 ****  ****    0 ROOT


##########                                Name:    ZINC000842947763
##########                DOCK_Rotatable_Bonds:                   7
##########                         Heavy_Atoms:                  24
##########                    Molecular_Weight:             365.373
##########                DOCK_Rotatable_Bonds:                   7
##########                       Formal_Charge:          0.00999997
##########                     HBond_Acceptors:                   9
##########                        HBond_Donors:                   0
##########                         Heavy_Atoms:                  24
##########                          Grid_Score:          -27.427698
##########                     Grid_vdw_energy:          -26.531771
##########                      Grid_es_energy:           -0.895928
##########           Internal_energy_repulsive:           30.908665

@<TRIPOS>MOLECULE
ZINC000842947763
 42 43 1 0 0
SMALL
USER_CHARGES


@<TRIPOS>ATOM
      1 C1        -16.3233   -6.7736   51.2957 C.3     1  ZINC000842947763   -0.1600
      2 C2        -16.4069   -5.8156   52.4856 C.3     1  ZINC000842947763   -0.1000
      3 H3        -15.7225   -4.9818   52.3296 H       1  ZINC000842947763    0.1000
      4 C4        -16.0218   -6.5586   53.7666 C.3     1  ZINC000842947763    0.0800
      5 O5        -15.5953   -5.6014   54.7716 O.3     1  ZINC000842947763   -0.3500
      6 C6        -15.0738   -6.1005   55.9095 C.2     1  ZINC000842947763    0.5200
      7 O7        -15.3071   -7.2485   56.2324 O.2     1  ZINC000842947763   -0.5100
      8 C8        -14.2206   -5.2540   56.7625 C.ar    1  ZINC000842947763   -0.1600
      9 C9        -12.9875   -5.7302   57.2188 C.ar    1  ZINC000842947763   -0.0200
     10 C10       -12.1969   -4.9360   58.0133 C.ar    1  ZINC000842947763   -0.1700
     11 C11       -12.6187   -3.6495   58.3707 C.ar    1  ZINC000842947763    0.2000
     12 C12       -13.8460   -3.1852   57.9122 C.ar    1  ZINC000842947763   -0.1500
     13 C13       -14.6358   -3.9668   57.1169 C.ar    1  ZINC000842947763   -0.0100
     14 C14       -14.0540   -1.7823   58.4387 C.3     1  ZINC000842947763   -0.0800
     15 C15       -12.7892   -1.4905   59.2626 C.3     1  ZINC000842947763    0.1100
     16 N16       -11.9727   -2.7021   59.1558 N.am    1  ZINC000842947763   -0.9400
     17 S17       -10.4929   -2.9128   59.8685 S.o2    1  ZINC000842947763    2.6100
     18 C18        -9.4606   -1.5971   59.1658 C.3     1  ZINC000842947763   -0.6700
     19 O19       -10.7318   -2.6756   61.2491 O.2     1  ZINC000842947763   -0.9300
     20 O20       -10.0602   -4.1856   59.4080 O.2     1  ZINC000842947763   -0.9400
     21 C21       -17.8362   -5.2851   52.6139 C.3     1  ZINC000842947763   -0.1600
     22 C22       -18.0284   -4.1021   51.6628 C.3     1  ZINC000842947763    0.4600
     23 F23       -16.8901   -3.2894   51.6934 F       1  ZINC000842947763   -0.1800
     24 F24       -18.2274   -4.5772   50.3620 F       1  ZINC000842947763   -0.1800
     25 F25       -19.1434   -3.3582   52.0631 F       1  ZINC000842947763   -0.1800
     26 H26       -16.4599   -6.2153   50.3695 H       1  ZINC000842947763    0.0700
     27 H27       -15.3471   -7.2583   51.2873 H       1  ZINC000842947763    0.0700
     28 H28       -17.1036   -7.5298   51.3824 H       1  ZINC000842947763    0.0600
     29 H29       -16.8829   -7.1148   54.1369 H       1  ZINC000842947763    0.0800
     30 H30       -15.2064   -7.2501   53.5542 H       1  ZINC000842947763    0.0800
     31 H31       -12.6570   -6.7218   56.9470 H       1  ZINC000842947763    0.1500
     32 H32       -11.2449   -5.3059   58.3644 H       1  ZINC000842947763    0.1500
     33 H33       -15.5868   -3.5924   56.7679 H       1  ZINC000842947763    0.1400
     34 H34       -14.1425   -1.0754   57.6138 H       1  ZINC000842947763    0.1000
     35 H35       -14.9395   -1.7411   59.0731 H       1  ZINC000842947763    0.1000
     36 H36       -12.2551   -0.6366   58.8458 H       1  ZINC000842947763    0.1000
     37 H37       -13.0513   -1.3019   60.3038 H       1  ZINC000842947763    0.0900
     38 H38        -9.8944   -0.6267   59.4077 H       1  ZINC000842947763    0.1300
     39 H39        -8.4562   -1.6606   59.5845 H       1  ZINC000842947763    0.1400
     40 H40        -9.4111   -1.7131   58.0831 H       1  ZINC000842947763    0.1300
     41 H41       -18.5416   -6.0755   52.3576 H       1  ZINC000842947763    0.1200
     42 H42       -18.0122   -4.9593   53.6391 H       1  ZINC000842947763    0.1100
@<TRIPOS>BOND
     1     1     2    1
     2     1    26    1
     3     1    27    1
     4     1    28    1
     5     2     3    1
     6     2     4    1
     7     2    21    1
     8     4     5    1
     9     4    29    1
    10     4    30    1
    11     5     6    1
    12     6     7    2
    13     6     8    1
    14     8    13   ar
    15     8     9   ar
    16     9    10   ar
    17     9    31    1
    18    10    11   ar
    19    10    32    1
    20    11    16    1
    21    11    12   ar
    22    12    13   ar
    23    12    14    1
    24    13    33    1
    25    14    15    1
    26    14    34    1
    27    14    35    1
    28    15    16    1
    29    15    36    1
    30    15    37    1
    31    16    17   am
    32    17    18    1
    33    17    19    2
    34    17    20    2
    35    18    38    1
    36    18    39    1
    37    18    40    1
    38    21    22    1
    39    21    41    1
    40    21    42    1
    41    22    23    1
    42    22    24    1
    43    22    25    1
@<TRIPOS>SUBSTRUCTURE
     1 ZINC000842947763        1 TEMP              0 ****  ****    0 ROOT


##########                                Name:    ZINC000966038509
##########                DOCK_Rotatable_Bonds:                   5
##########                         Heavy_Atoms:                  25
##########                    Molecular_Weight:             346.445
##########                DOCK_Rotatable_Bonds:                   5
##########                       Formal_Charge:           0.0299998
##########                     HBond_Acceptors:                   5
##########                        HBond_Donors:                   1
##########                         Heavy_Atoms:                  25
##########                          Grid_Score:          -27.427425
##########                     Grid_vdw_energy:          -25.070269
##########                      Grid_es_energy:           -2.357157
##########           Internal_energy_repulsive:           16.231995

@<TRIPOS>MOLECULE
ZINC000966038509
 52 54 1 0 0
SMALL
USER_CHARGES


@<TRIPOS>ATOM
      1 C1        -10.6013   -0.4030   54.4648 C.3     1  ZINC000966038509   -0.1200
      2 C2        -10.7048    0.9765   55.0625 C.ar    1  ZINC000966038509   -0.0100
      3 C3        -11.3073    1.9930   54.3529 C.ar    1  ZINC000966038509   -0.1600
      4 C4        -11.4027    3.2628   54.9015 C.ar    1  ZINC000966038509    0.1300
      5 F5        -11.9938    4.2557   54.2015 F       1  ZINC000966038509   -0.1300
      6 C6        -10.8941    3.5173   56.1660 C.ar    1  ZINC000966038509   -0.1600
      7 C7        -10.2896    2.5080   56.8843 C.ar    1  ZINC000966038509   -0.0100
      8 C8         -9.7368    2.7861   58.2584 C.3     1  ZINC000966038509   -0.1200
      9 C9        -10.1956    1.2259   56.3387 C.ar    1  ZINC000966038509   -0.1500
     10 C10        -9.5488    0.1404   57.1038 C.2     1  ZINC000966038509    0.5700
     11 O11        -8.3363    0.0836   57.1721 O.2     1  ZINC000966038509   -0.5200
     12 N12       -10.3029   -0.7873   57.7264 N.am    1  ZINC000966038509   -0.7100
     13 C13        -9.6615   -1.8628   58.4866 C.3     1  ZINC000966038509    0.1300
     14 H14        -8.6835   -2.1036   58.0697 H       1  ZINC000966038509    0.1200
     15 C15        -9.5497   -1.4922   59.9866 C.3     1  ZINC000966038509    0.0900
     16 N16       -10.8795   -1.7903   60.5491 N.am    1  ZINC000966038509   -0.6200
     17 C17       -11.4078   -1.2304   61.6554 C.2     1  ZINC000966038509    0.5400
     18 O18       -12.5162   -1.5522   62.0277 O.2     1  ZINC000966038509   -0.5300
     19 C19       -10.6211   -0.2047   62.4298 C.3     1  ZINC000966038509   -0.1100
     20 C20       -11.4807    0.3870   63.5745 C.3     1  ZINC000966038509   -0.1100
     21 C21       -10.4138    0.8979   64.5743 C.3     1  ZINC000966038509   -0.1200
     22 C22        -9.3008   -0.1690   64.5178 C.3     1  ZINC000966038509   -0.1200
     23 C23        -9.4326   -0.8699   63.1544 C.3     1  ZINC000966038509   -0.1100
     24 C24       -11.5340   -2.7987   59.7028 C.3     1  ZINC000966038509    0.1000
     25 C25       -10.5675   -3.1212   58.5424 C.3     1  ZINC000966038509   -0.1100
     26 H26        -9.9789   -4.0108   58.7666 H       1  ZINC000966038509    0.1000
     27 C27       -11.3359   -3.2991   57.2314 C.3     1  ZINC000966038509   -0.1400
     28 H28       -11.4855   -0.9819   54.7316 H       1  ZINC000966038509    0.0800
     29 H29       -10.5321   -0.3246   53.3798 H       1  ZINC000966038509    0.0800
     30 H30        -9.7114   -0.9003   54.8506 H       1  ZINC000966038509    0.0700
     31 H31       -11.7054    1.8002   53.3676 H       1  ZINC000966038509    0.1400
     32 H32       -10.9713    4.5080   56.5888 H       1  ZINC000966038509    0.1400
     33 H33       -10.5104    2.6054   59.0046 H       1  ZINC000966038509    0.0800
     34 H34        -8.8881    2.1291   58.4484 H       1  ZINC000966038509    0.0700
     35 H35        -9.4120    3.8250   58.3159 H       1  ZINC000966038509    0.0800
     36 H36       -11.2702   -0.7427   57.6709 H       1  ZINC000966038509    0.4000
     37 H37        -8.7872   -2.1012   60.4720 H       1  ZINC000966038509    0.0800
     38 H38        -9.3189   -0.4329   60.0994 H       1  ZINC000966038509    0.0800
     39 H39       -10.2695    0.5857   61.7665 H       1  ZINC000966038509    0.0900
     40 H40       -12.0947    1.2107   63.2103 H       1  ZINC000966038509    0.0700
     41 H41       -12.0999   -0.3851   64.0312 H       1  ZINC000966038509    0.0700
     42 H42       -10.0289    1.8677   64.2591 H       1  ZINC000966038509    0.0700
     43 H43       -10.8316    0.9604   65.5791 H       1  ZINC000966038509    0.0700
     44 H44        -8.3235    0.3064   64.6004 H       1  ZINC000966038509    0.0700
     45 H45        -9.4346   -0.8911   65.3233 H       1  ZINC000966038509    0.0700
     46 H46        -9.6303   -1.9322   63.2982 H       1  ZINC000966038509    0.0800
     47 H47        -8.5192   -0.7347   62.5752 H       1  ZINC000966038509    0.0700
     48 H48       -11.7292   -3.7000   60.2839 H       1  ZINC000966038509    0.0800
     49 H49       -12.4684   -2.4007   59.3072 H       1  ZINC000966038509    0.0700
     50 H50       -11.8933   -2.3887   57.0106 H       1  ZINC000966038509    0.0600
     51 H51       -10.6332   -3.4999   56.4227 H       1  ZINC000966038509    0.0700
     52 H52       -12.0287   -4.1351   57.3268 H       1  ZINC000966038509    0.0700
@<TRIPOS>BOND
     1     1     2    1
     2     1    28    1
     3     1    29    1
     4     1    30    1
     5     2     9   ar
     6     2     3   ar
     7     3     4   ar
     8     3    31    1
     9     4     5    1
    10     4     6   ar
    11     6     7   ar
    12     6    32    1
    13     7     8    1
    14     7     9   ar
    15     8    33    1
    16     8    34    1
    17     8    35    1
    18     9    10    1
    19    10    11    2
    20    10    12   am
    21    12    13    1
    22    12    36    1
    23    13    14    1
    24    13    25    1
    25    13    15    1
    26    15    16    1
    27    15    37    1
    28    15    38    1
    29    16    17   am
    30    16    24    1
    31    17    18    2
    32    17    19    1
    33    19    23    1
    34    19    20    1
    35    19    39    1
    36    20    21    1
    37    20    40    1
    38    20    41    1
    39    21    22    1
    40    21    42    1
    41    21    43    1
    42    22    23    1
    43    22    44    1
    44    22    45    1
    45    23    46    1
    46    23    47    1
    47    24    25    1
    48    24    48    1
    49    24    49    1
    50    25    26    1
    51    25    27    1
    52    27    50    1
    53    27    51    1
    54    27    52    1
@<TRIPOS>SUBSTRUCTURE
     1 ZINC000966038509        1 TEMP              0 ****  ****    0 ROOT


##########                                Name:    ZINC000995593866
##########                DOCK_Rotatable_Bonds:                   7
##########                         Heavy_Atoms:                  24
##########                    Molecular_Weight:             342.389
##########                DOCK_Rotatable_Bonds:                   7
##########                       Formal_Charge:                0.03
##########                     HBond_Acceptors:                   8
##########                        HBond_Donors:                   1
##########                         Heavy_Atoms:                  24
##########                          Grid_Score:          -27.418797
##########                     Grid_vdw_energy:          -26.753363
##########                      Grid_es_energy:           -0.665434
##########           Internal_energy_repulsive:           10.444099

@<TRIPOS>MOLECULE
ZINC000995593866
 48 50 1 0 0
SMALL
USER_CHARGES


@<TRIPOS>ATOM
      1 C1        -10.2508   -3.3139   58.5266 C.3     1  ZINC000995593866   -0.1400
      2 C2        -10.4592   -1.8346   58.8574 C.3     1  ZINC000995593866   -0.0800
      3 C3         -9.2494   -1.0140   58.4056 C.3     1  ZINC000995593866   -0.1400
      4 C4        -11.7469   -1.3107   58.1859 C.3     1  ZINC000995593866    0.1200
      5 N5        -12.7902   -1.4355   59.2302 N.am    1  ZINC000995593866   -0.6300
      6 C6        -14.0710   -1.8263   59.0767 C.2     1  ZINC000995593866    0.5400
      7 O7        -14.4862   -2.1252   57.9771 O.2     1  ZINC000995593866   -0.5300
      8 C8        -14.9871   -1.8917   60.2715 C.3     1  ZINC000995593866   -0.1300
      9 C9        -16.4245   -2.1213   59.8000 C.3     1  ZINC000995593866   -0.1000
     10 C10       -16.8073   -3.6068   59.6918 C.3     1  ZINC000995593866   -0.1300
     11 C11       -18.1751   -3.2158   60.2757 C.3     1  ZINC000995593866   -0.1400
     12 C12       -17.4664   -2.0160   60.9262 C.3     1  ZINC000995593866   -0.1400
     13 C13       -12.1066   -1.0333   60.4814 C.3     1  ZINC000995593866    0.1100
     14 C14       -10.6963   -1.6518   60.3709 C.3     1  ZINC000995593866    0.0800
     15 H15       -10.6644   -2.6156   60.8787 H       1  ZINC000995593866    0.0700
     16 N16        -9.6936   -0.7419   60.9408 N.3     1  ZINC000995593866   -0.6800
     17 C17        -9.0996   -1.3094   62.1586 C.3     1  ZINC000995593866    0.1500
     18 C18        -9.6854   -0.6275   63.3681 C.2     1  ZINC000995593866    0.1900
     19 N19        -9.0252   -0.1825   64.4100 N.2     1  ZINC000995593866   -0.4300
     20 C20        -9.9533    0.3441   65.2288 C.2     1  ZINC000995593866    0.0900
     21 C21        -9.6993    0.9888   66.5670 C.3     1  ZINC000995593866    0.3800
     22 F22       -10.6732    1.9641   66.8070 F       1  ZINC000995593866   -0.1800
     23 F23        -9.7557    0.0165   67.5714 F       1  ZINC000995593866   -0.1700
     24 N24       -11.1090    0.1950   64.6537 N.2     1  ZINC000995593866   -0.3400
     25 O25       -10.9764   -0.3557   63.5812 O.3     1  ZINC000995593866    0.1000
     26 H26       -11.1355   -3.8796   58.8187 H       1  ZINC000995593866    0.0600
     27 H27       -10.0847   -3.4266   57.4553 H       1  ZINC000995593866    0.0600
     28 H28        -9.3837   -3.6891   59.0702 H       1  ZINC000995593866    0.0600
     29 H29        -9.1106   -1.1328   57.3310 H       1  ZINC000995593866    0.0700
     30 H30        -9.4173    0.0380   58.6362 H       1  ZINC000995593866    0.0700
     31 H31        -8.3584   -1.3628   58.9277 H       1  ZINC000995593866    0.0600
     32 H32       -11.6254   -0.2679   57.8927 H       1  ZINC000995593866    0.0800
     33 H33       -12.0003   -1.9229   57.3204 H       1  ZINC000995593866    0.0900
     34 H34       -14.6815   -2.7135   60.9191 H       1  ZINC000995593866    0.0900
     35 H35       -14.9315   -0.9537   60.8239 H       1  ZINC000995593866    0.0900
     36 H36       -16.6779   -1.5381   58.9148 H       1  ZINC000995593866    0.1000
     37 H37       -16.8586   -3.9708   58.6656 H       1  ZINC000995593866    0.0700
     38 H38       -16.2238   -4.2567   60.3439 H       1  ZINC000995593866    0.0800
     39 H39       -18.9078   -2.9329   59.5200 H       1  ZINC000995593866    0.0800
     40 H40       -18.5645   -3.9357   60.9957 H       1  ZINC000995593866    0.0700
     41 H41       -17.0631   -2.2310   61.9157 H       1  ZINC000995593866    0.0800
     42 H42       -18.0498   -1.0957   60.8966 H       1  ZINC000995593866    0.0700
     43 H43       -12.0413    0.0528   60.5466 H       1  ZINC000995593866    0.0900
     44 H44       -12.6314   -1.4362   61.3477 H       1  ZINC000995593866    0.0800
     45 H45        -8.9817   -0.5174   60.2620 H       1  ZINC000995593866    0.3600
     46 H46        -9.3140   -2.3771   62.2040 H       1  ZINC000995593866    0.1200
     47 H47        -8.0206   -1.1559   62.1420 H       1  ZINC000995593866    0.0800
     48 H48        -8.7130    1.4528   66.5655 H       1  ZINC000995593866    0.1500
@<TRIPOS>BOND
     1     1     2    1
     2     1    26    1
     3     1    27    1
     4     1    28    1
     5     2    14    1
     6     2     3    1
     7     2     4    1
     8     3    29    1
     9     3    30    1
    10     3    31    1
    11     4     5    1
    12     4    32    1
    13     4    33    1
    14     5     6   am
    15     5    13    1
    16     6     7    2
    17     6     8    1
    18     8     9    1
    19     8    34    1
    20     8    35    1
    21     9    12    1
    22     9    10    1
    23     9    36    1
    24    10    11    1
    25    10    37    1
    26    10    38    1
    27    11    12    1
    28    11    39    1
    29    11    40    1
    30    12    41    1
    31    12    42    1
    32    13    14    1
    33    13    43    1
    34    13    44    1
    35    14    15    1
    36    14    16    1
    37    16    17    1
    38    16    45    1
    39    17    18    1
    40    17    46    1
    41    17    47    1
    42    18    25    1
    43    18    19    2
    44    19    20    1
    45    20    21    1
    46    20    24    2
    47    21    22    1
    48    21    23    1
    49    21    48    1
    50    24    25    1
@<TRIPOS>SUBSTRUCTURE
     1 ZINC000995593866        1 TEMP              0 ****  ****    0 ROOT


##########                                Name:    ZINC000942890482
##########                DOCK_Rotatable_Bonds:                   8
##########                         Heavy_Atoms:                  25
##########                    Molecular_Weight:             346.445
##########                DOCK_Rotatable_Bonds:                   8
##########                       Formal_Charge:          -0.0100004
##########                     HBond_Acceptors:                   5
##########                        HBond_Donors:                   0
##########                         Heavy_Atoms:                  25
##########                          Grid_Score:          -27.398556
##########                     Grid_vdw_energy:          -25.228340
##########                      Grid_es_energy:           -2.170216
##########           Internal_energy_repulsive:           23.199875

@<TRIPOS>MOLECULE
ZINC000942890482
 52 54 1 0 0
SMALL
USER_CHARGES


@<TRIPOS>ATOM
      1 C1        -10.5096   -3.8780   58.7646 C.3     1  ZINC000942890482   -0.1700
      2 C2        -11.5633   -2.7772   58.9021 C.3     1  ZINC000942890482    0.1000
      3 N3        -11.1475   -1.8301   59.9396 N.am    1  ZINC000942890482   -0.6000
      4 C4        -11.2387   -2.1724   61.2401 C.2     1  ZINC000942890482    0.5700
      5 O5        -11.6661   -3.2669   61.5519 O.2     1  ZINC000942890482   -0.5100
      6 C6        -10.8195   -1.2175   62.2863 C.ar    1  ZINC000942890482   -0.1400
      7 C7         -9.4738   -1.1175   62.6451 C.ar    1  ZINC000942890482   -0.0600
      8 C8         -9.0879   -0.2243   63.6217 C.ar    1  ZINC000942890482   -0.1600
      9 C9        -10.0332    0.5736   64.2474 C.ar    1  ZINC000942890482    0.1300
     10 F10        -9.6498    1.4473   65.2040 F       1  ZINC000942890482   -0.1300
     11 C11       -11.3710    0.4786   63.8947 C.ar    1  ZINC000942890482   -0.1600
     12 C12       -11.7670   -0.4075   62.9163 C.ar    1  ZINC000942890482   -0.0100
     13 C13       -13.2211   -0.5096   62.5339 C.3     1  ZINC000942890482   -0.1200
     14 C14       -10.6325   -0.5111   59.5637 C.3     1  ZINC000942890482    0.1400
     15 H15       -10.1980   -0.0037   60.4250 H       1  ZINC000942890482    0.1100
     16 C16       -11.7428    0.3537   58.9104 C.3     1  ZINC000942890482   -0.1500
     17 C17       -10.9437    1.3194   58.0100 C.3     1  ZINC000942890482    0.1100
     18 N18        -9.6422    0.6902   57.7421 N.am    1  ZINC000942890482   -0.6200
     19 C19        -8.6464    1.2264   57.0090 C.2     1  ZINC000942890482    0.5300
     20 O20        -7.6112    0.6144   56.8525 O.2     1  ZINC000942890482   -0.5400
     21 C21        -8.8194    2.5868   56.3839 C.3     1  ZINC000942890482   -0.1300
     22 C22        -9.4672    2.4362   55.0060 C.3     1  ZINC000942890482   -0.0700
     23 C23        -8.5961    1.5347   54.1288 C.3     1  ZINC000942890482   -0.1600
     24 C24        -8.2080    2.0579   52.7444 C.3     1  ZINC000942890482   -0.1800
     25 C25        -7.1601    1.9875   53.8571 C.3     1  ZINC000942890482   -0.1800
     26 C26        -9.6055   -0.6243   58.4096 C.3     1  ZINC000942890482    0.0900
     27 H27        -9.5534   -3.4333   58.4886 H       1  ZINC000942890482    0.0600
     28 H28       -10.4057   -4.4022   59.7146 H       1  ZINC000942890482    0.0600
     29 H29       -10.8189   -4.5826   57.9927 H       1  ZINC000942890482    0.0700
     30 H30       -11.6671   -2.2529   57.9521 H       1  ZINC000942890482    0.0900
     31 H31       -12.5194   -3.2218   59.1781 H       1  ZINC000942890482    0.0900
     32 H32        -8.7365   -1.7389   62.1584 H       1  ZINC000942890482    0.1400
     33 H33        -8.0473   -0.1464   63.9002 H       1  ZINC000942890482    0.1400
     34 H34       -12.1035    1.1026   64.3853 H       1  ZINC000942890482    0.1400
     35 H35       -13.4519    0.2419   61.7788 H       1  ZINC000942890482    0.0900
     36 H36       -13.4222   -1.5025   62.1317 H       1  ZINC000942890482    0.0700
     37 H37       -13.8410   -0.3419   63.4147 H       1  ZINC000942890482    0.0700
     38 H38       -12.4124   -0.2652   58.3133 H       1  ZINC000942890482    0.1000
     39 H39       -12.2988    0.9048   59.6688 H       1  ZINC000942890482    0.0900
     40 H40       -11.4774    1.4803   57.0734 H       1  ZINC000942890482    0.0700
     41 H41       -10.7972    2.2696   58.5237 H       1  ZINC000942890482    0.0700
     42 H42        -9.4572    3.2004   57.0201 H       1  ZINC000942890482    0.0900
     43 H43        -7.8454    3.0642   56.2774 H       1  ZINC000942890482    0.0900
     44 H44       -10.4558    1.9905   55.1160 H       1  ZINC000942890482    0.0700
     45 H45        -9.5605    3.4167   54.5392 H       1  ZINC000942890482    0.0700
     46 H46        -8.7757    0.4643   54.2305 H       1  ZINC000942890482    0.1000
     47 H47        -8.1321    1.3318   51.9350 H       1  ZINC000942890482    0.0900
     48 H48        -8.5731    3.0444   52.4586 H       1  ZINC000942890482    0.0900
     49 H49        -6.8360    2.9277   54.3033 H       1  ZINC000942890482    0.0900
     50 H50        -6.3950    1.2151   53.7797 H       1  ZINC000942890482    0.0900
     51 H51        -8.6091   -0.8214   58.8049 H       1  ZINC000942890482    0.0800
     52 H52        -9.9015   -1.4107   57.7152 H       1  ZINC000942890482    0.0900
@<TRIPOS>BOND
     1     1     2    1
     2     1    27    1
     3     1    28    1
     4     1    29    1
     5     2     3    1
     6     2    30    1
     7     2    31    1
     8     3     4   am
     9     3    14    1
    10     4     5    2
    11     4     6    1
    12     6    12   ar
    13     6     7   ar
    14     7     8   ar
    15     7    32    1
    16     8     9   ar
    17     8    33    1
    18     9    10    1
    19     9    11   ar
    20    11    12   ar
    21    11    34    1
    22    12    13    1
    23    13    35    1
    24    13    36    1
    25    13    37    1
    26    14    15    1
    27    14    26    1
    28    14    16    1
    29    16    17    1
    30    16    38    1
    31    16    39    1
    32    17    18    1
    33    17    40    1
    34    17    41    1
    35    18    19   am
    36    18    26    1
    37    19    20    2
    38    19    21    1
    39    21    22    1
    40    21    42    1
    41    21    43    1
    42    22    23    1
    43    22    44    1
    44    22    45    1
    45    23    25    1
    46    23    24    1
    47    23    46    1
    48    24    25    1
    49    24    47    1
    50    24    48    1
    51    25    49    1
    52    25    50    1
    53    26    51    1
    54    26    52    1
@<TRIPOS>SUBSTRUCTURE
     1 ZINC000942890482        1 TEMP              0 ****  ****    0 ROOT


##########                                Name:    ZINC001110536231
##########                DOCK_Rotatable_Bonds:                   8
##########                         Heavy_Atoms:                  24
##########                    Molecular_Weight:             329.442
##########                DOCK_Rotatable_Bonds:                   8
##########                       Formal_Charge:          -0.0400001
##########                     HBond_Acceptors:                   5
##########                        HBond_Donors:                   1
##########                         Heavy_Atoms:                  24
##########                          Grid_Score:          -27.388981
##########                     Grid_vdw_energy:          -26.683517
##########                      Grid_es_energy:           -0.705463
##########           Internal_energy_repulsive:           29.809546

@<TRIPOS>MOLECULE
ZINC001110536231
 51 53 1 0 0
SMALL
USER_CHARGES


@<TRIPOS>ATOM
      1 C1         -7.9152   -0.7497   66.3293 C.3     1  ZINC001110536231   -0.1300
      2 C2         -8.2075    0.4457   65.4202 C.3     1  ZINC001110536231   -0.1000
      3 C3         -9.6645    0.8150   65.5289 C.2     1  ZINC001110536231   -0.0200
      4 C4        -10.1401    1.6771   66.6699 C.3     1  ZINC001110536231   -0.1300
      5 C5        -10.5306    0.3803   64.6180 C.2     1  ZINC001110536231   -0.2400
      6 C6        -10.0663   -0.4611   63.5043 C.2     1  ZINC001110536231    0.5400
      7 O7         -9.4573   -1.4889   63.7315 O.2     1  ZINC001110536231   -0.5300
      8 N8        -10.3159   -0.0929   62.2321 N.am    1  ZINC001110536231   -0.7300
      9 C9         -9.8550   -0.9317   61.1230 C.3     1  ZINC001110536231    0.1100
     10 H10        -8.8006   -1.1803   61.2437 H       1  ZINC001110536231    0.1000
     11 C11       -10.0963   -0.2239   59.7672 C.3     1  ZINC001110536231   -0.1600
     12 C12       -11.0733   -1.1838   59.0238 C.3     1  ZINC001110536231    0.0500
     13 H13       -11.6531   -0.7338   58.2178 H       1  ZINC001110536231    0.1200
     14 C14       -10.2042   -2.4136   58.6221 C.3     1  ZINC001110536231   -0.1200
     15 C15        -9.9475   -3.1311   59.9700 C.3     1  ZINC001110536231   -0.1100
     16 C16       -10.7158   -2.2269   61.0202 C.3     1  ZINC001110536231    0.0400
     17 H17       -10.9741   -2.7139   61.9605 H       1  ZINC001110536231    0.1200
     18 N18       -11.8694   -1.7353   60.1778 N.3     1  ZINC001110536231   -0.4900
     19 C19       -12.6163   -0.6786   60.8734 C.3     1  ZINC001110536231    0.0600
     20 C20       -14.0850   -0.8153   60.5648 C.ar    1  ZINC001110536231    0.0100
     21 C21       -14.7488    0.1552   59.8275 C.ar    1  ZINC001110536231   -0.2100
     22 C22       -16.0949   -0.0011   59.5622 C.ar    1  ZINC001110536231    0.1400
     23 N23       -16.7523   -1.0578   60.0002 N.ar    1  ZINC001110536231   -0.5400
     24 C24       -16.1546   -2.0037   60.7057 C.ar    1  ZINC001110536231    0.3200
     25 O25       -16.8691   -3.0739   61.1359 O.3     1  ZINC001110536231   -0.3100
     26 C26       -18.0758   -3.3739   60.4317 C.3     1  ZINC001110536231    0.0400
     27 C27       -14.8015   -1.9147   61.0056 C.ar    1  ZINC001110536231   -0.1700
     28 H28        -6.8614   -1.0167   66.2507 H       1  ZINC001110536231    0.0500
     29 H29        -8.1473   -0.4866   67.3613 H       1  ZINC001110536231    0.0700
     30 H30        -8.5286   -1.5972   66.0237 H       1  ZINC001110536231    0.0400
     31 H31        -7.5941    1.2933   65.7259 H       1  ZINC001110536231    0.0900
     32 H32        -7.9754    0.1826   64.3882 H       1  ZINC001110536231    0.0600
     33 H33       -10.0836    2.7265   66.3805 H       1  ZINC001110536231    0.0800
     34 H34       -11.1718    1.4221   66.9124 H       1  ZINC001110536231    0.0700
     35 H35        -9.5090    1.5061   67.5420 H       1  ZINC001110536231    0.0700
     36 H36       -11.5747    0.6451   64.6960 H       1  ZINC001110536231    0.1200
     37 H37       -10.8006    0.7276   62.0508 H       1  ZINC001110536231    0.4000
     38 H38       -10.5588    0.7512   59.9204 H       1  ZINC001110536231    0.0700
     39 H39        -9.1620   -0.1240   59.2148 H       1  ZINC001110536231    0.0800
     40 H40       -10.7514   -3.0637   57.9395 H       1  ZINC001110536231    0.0700
     41 H41        -9.2646   -2.0897   58.1747 H       1  ZINC001110536231    0.0700
     42 H42       -10.3674   -4.1368   59.9553 H       1  ZINC001110536231    0.0800
     43 H43        -8.8805   -3.1628   60.1906 H       1  ZINC001110536231    0.0700
     44 H44       -12.4607   -0.7709   61.9482 H       1  ZINC001110536231    0.0900
     45 H45       -12.2638    0.2967   60.5376 H       1  ZINC001110536231    0.0700
     46 H46       -14.2184    1.0235   59.4655 H       1  ZINC001110536231    0.1300
     47 H47       -16.6162    0.7513   58.9891 H       1  ZINC001110536231    0.1600
     48 H48       -18.5478   -4.2500   60.8763 H       1  ZINC001110536231    0.1000
     49 H49       -18.7548   -2.5235   60.4955 H       1  ZINC001110536231    0.0600
     50 H50       -17.8453   -3.5769   59.3858 H       1  ZINC001110536231    0.0600
     51 H51       -14.3166   -2.6889   61.5816 H       1  ZINC001110536231    0.1400
@<TRIPOS>BOND
     1     1     2    1
     2     1    28    1
     3     1    29    1
     4     1    30    1
     5     2     3    1
     6     2    31    1
     7     2    32    1
     8     3     4    1
     9     3     5    2
    10     4    33    1
    11     4    34    1
    12     4    35    1
    13     5     6    1
    14     5    36    1
    15     6     7    2
    16     6     8   am
    17     8     9    1
    18     8    37    1
    19     9    10    1
    20     9    16    1
    21     9    11    1
    22    11    12    1
    23    11    38    1
    24    11    39    1
    25    12    13    1
    26    12    18    1
    27    12    14    1
    28    14    15    1
    29    14    40    1
    30    14    41    1
    31    15    16    1
    32    15    42    1
    33    15    43    1
    34    16    17    1
    35    16    18    1
    36    18    19    1
    37    19    20    1
    38    19    44    1
    39    19    45    1
    40    20    27   ar
    41    20    21   ar
    42    21    22   ar
    43    21    46    1
    44    22    23   ar
    45    22    47    1
    46    23    24   ar
    47    24    25    1
    48    24    27   ar
    49    25    26    1
    50    26    48    1
    51    26    49    1
    52    26    50    1
    53    27    51    1
@<TRIPOS>SUBSTRUCTURE
     1 ZINC001110536231        1 TEMP              0 ****  ****    0 ROOT


##########                                Name:    ZINC000279331220
##########                DOCK_Rotatable_Bonds:                   9
##########                         Heavy_Atoms:                  24
##########                    Molecular_Weight:             328.411
##########                DOCK_Rotatable_Bonds:                   9
##########                       Formal_Charge:          -0.0100001
##########                     HBond_Acceptors:                   5
##########                        HBond_Donors:                   0
##########                         Heavy_Atoms:                  24
##########                          Grid_Score:          -27.367865
##########                     Grid_vdw_energy:          -26.202013
##########                      Grid_es_energy:           -1.165851
##########           Internal_energy_repulsive:           19.949505

@<TRIPOS>MOLECULE
ZINC000279331220
 48 49 1 0 0
SMALL
USER_CHARGES


@<TRIPOS>ATOM
      1 C1        -16.9927   -7.0352   53.3093 C.3     1  ZINC000279331220   -0.1500
      2 C2        -16.1067   -6.1777   52.4035 C.3     1  ZINC000279331220    0.0500
      3 O3        -15.2580   -5.3557   53.2074 O.3     1  ZINC000279331220   -0.3000
      4 C4        -15.8661   -4.4754   54.0469 C.ar    1  ZINC000279331220    0.1000
      5 C5        -16.8603   -3.6362   53.5712 C.ar    1  ZINC000279331220   -0.1700
      6 C6        -17.4780   -2.7420   54.4262 C.ar    1  ZINC000279331220   -0.1200
      7 C7        -17.1055   -2.6828   55.7559 C.ar    1  ZINC000279331220   -0.1200
      8 C8        -16.1134   -3.5174   56.2371 C.ar    1  ZINC000279331220   -0.1700
      9 C9        -15.4950   -4.4198   55.3873 C.ar    1  ZINC000279331220    0.1000
     10 O10       -14.5193   -5.2413   55.8589 O.3     1  ZINC000279331220   -0.3000
     11 C11       -13.5022   -4.6441   56.6657 C.3     1  ZINC000279331220    0.0600
     12 C12       -12.8403   -3.5033   55.8902 C.3     1  ZINC000279331220   -0.1100
     13 C13       -11.9263   -2.7121   56.8280 C.3     1  ZINC000279331220   -0.1300
     14 C14       -11.2895   -1.5766   56.0689 C.2     1  ZINC000279331220    0.5200
     15 O15       -11.6361   -1.3377   54.9316 O.2     1  ZINC000279331220   -0.5200
     16 N16       -10.3348   -0.8265   56.6539 N.am    1  ZINC000279331220   -0.5700
     17 C17        -9.7171    0.2785   55.9165 C.3     1  ZINC000279331220    0.0800
     18 C18        -9.9351   -1.1019   57.9608 C.ar    1  ZINC000279331220    0.3400
     19 N19        -9.2439   -2.2010   58.2172 N.ar    1  ZINC000279331220   -0.4800
     20 C20        -8.8463   -2.4992   59.4393 C.ar    1  ZINC000279331220    0.1100
     21 C21        -9.1399   -1.6680   60.5019 C.ar    1  ZINC000279331220   -0.1600
     22 C22        -9.8632   -0.5047   60.2752 C.ar    1  ZINC000279331220   -0.0700
     23 C23       -10.2614   -0.2164   58.9819 C.ar    1  ZINC000279331220   -0.1200
     24 C24       -11.0478    1.0345   58.6858 C.3     1  ZINC000279331220   -0.1100
     25 H25       -17.6401   -7.6622   52.6962 H       1  ZINC000279331220    0.0800
     26 H26       -16.3655   -7.6667   53.9387 H       1  ZINC000279331220    0.0700
     27 H27       -17.6037   -6.3879   53.9383 H       1  ZINC000279331220    0.0700
     28 H28       -15.4957   -6.8250   51.7745 H       1  ZINC000279331220    0.0600
     29 H29       -16.7338   -5.5462   51.7741 H       1  ZINC000279331220    0.0600
     30 H30       -17.1527   -3.6801   52.5325 H       1  ZINC000279331220    0.1300
     31 H31       -18.2529   -2.0883   54.0542 H       1  ZINC000279331220    0.1300
     32 H32       -17.5901   -1.9828   56.4205 H       1  ZINC000279331220    0.1300
     33 H33       -15.8239   -3.4686   57.2764 H       1  ZINC000279331220    0.1300
     34 H34       -13.9473   -4.2516   57.5800 H       1  ZINC000279331220    0.0600
     35 H35       -12.7527   -5.3938   56.9193 H       1  ZINC000279331220    0.0600
     36 H36       -12.2512   -3.9149   55.0706 H       1  ZINC000279331220    0.0800
     37 H37       -13.6089   -2.8427   55.4892 H       1  ZINC000279331220    0.0800
     38 H38       -12.5129   -2.3124   57.6552 H       1  ZINC000279331220    0.1000
     39 H39       -11.1492   -3.3694   57.2180 H       1  ZINC000279331220    0.1000
     40 H40       -10.3358    1.1706   56.0132 H       1  ZINC000279331220    0.0700
     41 H41        -8.7259    0.4779   56.3237 H       1  ZINC000279331220    0.0800
     42 H42        -9.6300    0.0090   54.8639 H       1  ZINC000279331220    0.0800
     43 H43        -8.2843   -3.4054   59.6109 H       1  ZINC000279331220    0.1600
     44 H44        -8.8107   -1.9201   61.4991 H       1  ZINC000279331220    0.1400
     45 H45       -10.1057    0.1622   61.0894 H       1  ZINC000279331220    0.1400
     46 H46       -10.3672    1.8259   58.3718 H       1  ZINC000279331220    0.0800
     47 H47       -11.7636    0.8335   57.8887 H       1  ZINC000279331220    0.0700
     48 H48       -11.5815    1.3490   59.5827 H       1  ZINC000279331220    0.0700
@<TRIPOS>BOND
     1     1     2    1
     2     1    25    1
     3     1    26    1
     4     1    27    1
     5     2     3    1
     6     2    28    1
     7     2    29    1
     8     3     4    1
     9     4     9   ar
    10     4     5   ar
    11     5     6   ar
    12     5    30    1
    13     6     7   ar
    14     6    31    1
    15     7     8   ar
    16     7    32    1
    17     8     9   ar
    18     8    33    1
    19     9    10    1
    20    10    11    1
    21    11    12    1
    22    11    34    1
    23    11    35    1
    24    12    13    1
    25    12    36    1
    26    12    37    1
    27    13    14    1
    28    13    38    1
    29    13    39    1
    30    14    15    2
    31    14    16   am
    32    16    17    1
    33    16    18    1
    34    17    40    1
    35    17    41    1
    36    17    42    1
    37    18    23   ar
    38    18    19   ar
    39    19    20   ar
    40    20    21   ar
    41    20    43    1
    42    21    22   ar
    43    21    44    1
    44    22    23   ar
    45    22    45    1
    46    23    24    1
    47    24    46    1
    48    24    47    1
    49    24    48    1
@<TRIPOS>SUBSTRUCTURE
     1 ZINC000279331220        1 TEMP              0 ****  ****    0 ROOT


##########                                Name:    ZINC001217683559
##########                DOCK_Rotatable_Bonds:                   3
##########                         Heavy_Atoms:                  25
##########                    Molecular_Weight:             397.234
##########                DOCK_Rotatable_Bonds:                   3
##########                       Formal_Charge:          0.00999987
##########                     HBond_Acceptors:                   7
##########                        HBond_Donors:                   0
##########                         Heavy_Atoms:                  25
##########                          Grid_Score:          -27.342848
##########                     Grid_vdw_energy:          -26.281261
##########                      Grid_es_energy:           -1.061587
##########           Internal_energy_repulsive:           31.437431

@<TRIPOS>MOLECULE
ZINC001217683559
 38 42 1 0 0
SMALL
USER_CHARGES


@<TRIPOS>ATOM
      1 Br1        -9.6037   -1.3552   60.1815 Br      1  ZINC001217683559    0.0100
      2 C2        -10.4426   -0.0179   59.1404 C.ar    1  ZINC001217683559   -0.1200
      3 C3        -10.1275    1.3187   59.3267 C.ar    1  ZINC001217683559   -0.0500
      4 C4        -10.7677    2.2651   58.5405 C.ar    1  ZINC001217683559   -0.1500
      5 C5        -11.6947    1.8515   57.6008 C.ar    1  ZINC001217683559    0.1200
      6 N6        -11.9759    0.5743   57.4445 N.ar    1  ZINC001217683559   -0.4400
      7 C7        -11.3822   -0.3627   58.1709 C.ar    1  ZINC001217683559    0.2200
      8 C8        -11.7316   -1.7902   57.9593 C.2     1  ZINC001217683559    0.2100
      9 N9        -11.2052   -2.8164   58.5766 N.2     1  ZINC001217683559   -0.3300
     10 O10       -11.7041   -3.8483   58.1805 O.3     1  ZINC001217683559    0.1000
     11 C11       -12.6264   -3.5798   57.2430 C.2     1  ZINC001217683559    0.2300
     12 C12       -13.4552   -4.5634   56.5163 C.2     1  ZINC001217683559   -0.0600
     13 C13       -14.1526   -4.1822   55.4050 C.2     1  ZINC001217683559    0.1800
     14 N14       -14.9158   -5.0787   54.7320 N.pl3   1  ZINC001217683559   -0.2900
     15 N15       -15.7227   -4.9817   53.5893 N.2     1  ZINC001217683559   -0.3300
     16 C16       -16.2367   -6.1703   53.3783 C.2     1  ZINC001217683559    0.2800
     17 C17       -17.1694   -6.5248   52.2490 C.3     1  ZINC001217683559   -0.0300
     18 C18       -17.4258   -5.3634   51.2742 C.3     1  ZINC001217683559   -0.1200
     19 C19       -17.3506   -6.4010   50.1416 C.3     1  ZINC001217683559   -0.1400
     20 C20       -16.4766   -7.2478   51.0819 C.3     1  ZINC001217683559   -0.1200
     21 N21       -15.8099   -7.0122   54.3093 N.2     1  ZINC001217683559   -0.5300
     22 C22       -15.0023   -6.3773   55.1505 C.2     1  ZINC001217683559    0.2900
     23 C23       -14.2931   -6.7967   56.2929 C.2     1  ZINC001217683559   -0.1000
     24 C24       -13.5231   -5.9030   56.9667 C.2     1  ZINC001217683559   -0.0200
     25 N25       -12.6549   -2.2677   57.0989 N.2     1  ZINC001217683559   -0.4300
     26 H26        -9.4003    1.6165   60.0675 H       1  ZINC001217683559    0.1600
     27 H27       -10.5449    3.3150   58.6611 H       1  ZINC001217683559    0.1500
     28 H28       -12.1950    2.5860   56.9870 H       1  ZINC001217683559    0.1800
     29 H29       -14.0961   -3.1602   55.0605 H       1  ZINC001217683559    0.1900
     30 H30       -18.0789   -7.0189   52.5904 H       1  ZINC001217683559    0.1200
     31 H31       -18.4104   -4.9091   51.3856 H       1  ZINC001217683559    0.0700
     32 H32       -16.6204   -4.6294   51.2480 H       1  ZINC001217683559    0.1000
     33 H33       -18.3106   -6.8605   49.9060 H       1  ZINC001217683559    0.0800
     34 H34       -16.8224   -6.0446   49.2573 H       1  ZINC001217683559    0.0800
     35 H35       -15.4117   -7.0289   51.0031 H       1  ZINC001217683559    0.0900
     36 H36       -16.6948   -8.3148   51.0379 H       1  ZINC001217683559    0.0700
     37 H37       -14.3578   -7.8212   56.6284 H       1  ZINC001217683559    0.1700
     38 H38       -12.9739   -6.2105   57.8442 H       1  ZINC001217683559    0.1700
@<TRIPOS>BOND
     1     1     2    1
     2     2     7   ar
     3     2     3   ar
     4     3     4   ar
     5     3    26    1
     6     4     5   ar
     7     4    27    1
     8     5     6   ar
     9     5    28    1
    10     6     7   ar
    11     7     8    1
    12     8    25    1
    13     8     9    2
    14     9    10    1
    15    10    11    1
    16    11    12    1
    17    11    25    2
    18    12    24    1
    19    12    13    2
    20    13    14    1
    21    13    29    1
    22    14    22    1
    23    14    15    1
    24    15    16    2
    25    16    17    1
    26    16    21    1
    27    17    20    1
    28    17    18    1
    29    17    30    1
    30    18    19    1
    31    18    31    1
    32    18    32    1
    33    19    20    1
    34    19    33    1
    35    19    34    1
    36    20    35    1
    37    20    36    1
    38    21    22    2
    39    22    23    1
    40    23    24    2
    41    23    37    1
    42    24    38    1
@<TRIPOS>SUBSTRUCTURE
     1 ZINC001217683559        1 TEMP              0 ****  ****    0 ROOT


##########                                Name:     oleObject80.pdb
##########                DOCK_Rotatable_Bonds:                  14
##########                         Heavy_Atoms:                  51
##########                    Molecular_Weight:             703.283
##########                DOCK_Rotatable_Bonds:                  14
##########                       Formal_Charge:         0.000299793
##########                     HBond_Acceptors:                  10
##########                        HBond_Donors:                   3
##########                         Heavy_Atoms:                  51
##########                          Grid_Score:          -27.313257
##########                     Grid_vdw_energy:          -27.753441
##########                      Grid_es_energy:            0.440184
##########           Internal_energy_repulsive:           32.347919

@<TRIPOS>MOLECULE
oleObject80.pdb
 94 99 1 0 0
SMALL
NO_CHARGES


@<TRIPOS>ATOM
      1 C         -17.8699    6.2555   62.8607 C.ar    1  UNL        -0.0620
      2 C         -18.9763    5.9279   62.0643 C.ar    1  UNL        -0.0590
      3 C         -19.1507    4.6177   61.5777 C.ar    1  UNL        -0.0456
      4 C         -18.1969    3.6172   61.8946 C.ar    1  UNL        -0.0185
      5 C         -17.0887    3.9632   62.6997 C.ar    1  UNL        -0.0565
      6 C         -16.9260    5.2711   63.1793 C.ar    1  UNL        -0.0619
      7 C         -18.3567    2.1790   61.3697 C.3     1  UNL         0.0931
      8 C         -17.9610    2.0090   59.8921 C.ar    1  UNL         0.0683
      9 C         -18.7449    1.2365   58.9980 C.ar    1  UNL        -0.0272
     10 C         -18.3187    1.1197   57.6616 C.ar    1  UNL        -0.0559
     11 C         -17.1438    1.7705   57.2588 C.ar    1  UNL        -0.0435
     12 C         -16.4337    2.5217   58.2065 C.ar    1  UNL         0.0272
     13 N         -16.8330    2.6394   59.4865 N.ar    1  UNL        -0.2587
     14 C         -20.0263    0.5354   59.4354 C.3     1  UNL        -0.0379
     15 N         -17.7739    1.1373   62.2639 N.am    1  UNL        -0.2918
     16 C         -16.4422    0.7348   62.1120 C.2     1  UNL         0.2180
     17 O         -15.6649    1.3952   61.4420 O.2     1  UNL        -0.2772
     18 C         -15.9175   -0.3525   63.0830 C.3     1  UNL         0.0385
     19 C         -14.4049   -0.1906   63.3727 C.3     1  UNL        -0.0289
     20 C         -13.5403   -0.6080   62.1654 C.3     1  UNL        -0.0010
     21 N         -13.8138   -2.0021   61.7555 N.4     1  UNL        -0.3010
     22 C         -15.2424   -2.2461   61.4423 C.3     1  UNL        -0.0010
     23 C         -16.1902   -1.7962   62.5830 C.3     1  UNL        -0.0289
     24 C         -12.8773   -2.4493   60.7006 C.3     1  UNL         0.0222
     25 C         -11.4612   -2.7608   61.2270 C.3     1  UNL         0.0661
     26 O         -10.6456   -3.1292   60.1005 O.3     1  UNL        -0.3432
     27 C         -10.4485   -2.3150   59.0017 C.ar    1  UNL         0.0937
     28 C          -9.7261   -1.1073   59.0841 C.ar    1  UNL        -0.0284
     29 C          -9.5510   -0.3089   57.9418 C.ar    1  UNL        -0.0381
     30 C         -10.0778   -0.7053   56.7006 C.ar    1  UNL         0.0319
     31 C         -10.8179   -1.9011   56.6248 C.ar    1  UNL        -0.0194
     32 C         -10.9975   -2.7027   57.7642 C.ar    1  UNL         0.0727
     33 CL        -11.9237   -4.1847   57.6170 Cl      1  UNL        -0.0814
     34 N          -9.8949    0.1264   55.5973 N.pl3   1  UNL        -0.3136
     35 C         -10.7114    0.4061   54.5020 C.ar    1  UNL         0.0489
     36 C         -12.0704    0.7029   54.7074 C.ar    1  UNL         0.0488
     37 N         -12.9213    1.0023   53.7057 N.ar    1  UNL        -0.2543
     38 C         -12.4765    1.0430   52.4304 C.ar    1  UNL         0.0703
     39 C         -11.1135    0.7735   52.1410 C.ar    1  UNL        -0.0339
     40 C         -10.2260    0.4586   53.1826 C.ar    1  UNL        -0.0371
     41 C         -13.4843    1.3903   51.3673 C.ar    1  UNL         0.0009
     42 C         -14.6240    2.1863   51.6539 C.ar    1  UNL        -0.0402
     43 C         -15.5756    2.5181   50.6669 C.ar    1  UNL         0.0375
     44 C         -15.3855    2.0406   49.3535 C.ar    1  UNL        -0.0496
     45 C         -14.2717    1.2481   49.0430 C.ar    1  UNL        -0.0608
     46 C         -13.3352    0.9255   50.0354 C.ar    1  UNL        -0.0528
     47 C         -16.7661    3.3678   51.0411 C.2     1  UNL         0.2403
     48 O         -17.6399    3.6560   50.2430 O.2     1  UNL        -0.2722
     49 N         -16.8418    3.8197   52.3416 N.am    1  UNL        -0.3251
     50 C         -18.6337    0.6221   63.3533 C.3     1  UNL         0.0037
     51 C         -20.3763    4.3187   60.7192 C.3     1  UNL        -0.0394
     52 H         -17.7462    7.2692   63.2311 H       1  UNL         0.0623
     53 H         -19.7029    6.6993   61.8253 H       1  UNL         0.0626
     54 H         -16.3465    3.2183   62.9685 H       1  UNL         0.0627
     55 H         -16.0690    5.5198   63.7987 H       1  UNL         0.0623
     56 H         -19.4357    2.0053   61.3810 H       1  UNL         0.0626
     57 H         -18.8884    0.5342   56.9455 H       1  UNL         0.0627
     58 H         -16.7921    1.6968   56.2341 H       1  UNL         0.0639
     59 H         -15.5179    3.0447   57.9340 H       1  UNL         0.0840
     60 H         -19.8089   -0.2764   60.1407 H       1  UNL         0.0280
     61 H         -20.5581    0.0958   58.5824 H       1  UNL         0.0280
     62 H         -20.7160    1.2353   59.9232 H       1  UNL         0.0280
     63 H         -16.4634   -0.2439   64.0273 H       1  UNL         0.0402
     64 H         -14.1350   -0.8174   64.2324 H       1  UNL         0.0288
     65 H         -14.1689    0.8409   63.6553 H       1  UNL         0.0288
     66 H         -12.4832   -0.5003   62.4408 H       1  UNL         0.0431
     67 H         -13.7367    0.0744   61.3273 H       1  UNL         0.0431
     68 H         -15.4172   -3.3138   61.2654 H       1  UNL         0.0431
     69 H         -15.5073   -1.7171   60.5184 H       1  UNL         0.0431
     70 H         -16.0608   -2.4867   63.4265 H       1  UNL         0.0288
     71 H         -17.2346   -1.8928   62.2602 H       1  UNL         0.0288
     72 H         -12.7849   -1.6601   59.9430 H       1  UNL         0.0455
     73 H         -13.2770   -3.3411   60.2003 H       1  UNL         0.0455
     74 H         -11.4987   -3.5861   61.9483 H       1  UNL         0.0586
     75 H         -11.0503   -1.8697   61.7185 H       1  UNL         0.0586
     76 H          -9.2983   -0.7757   60.0245 H       1  UNL         0.0652
     77 H          -8.9929    0.6201   58.0207 H       1  UNL         0.0644
     78 H         -11.2757   -2.2057   55.6890 H       1  UNL         0.0659
     79 H          -9.0054    0.6089   55.5845 H       1  UNL         0.1528
     80 H         -12.4966    0.6918   55.7097 H       1  UNL         0.0861
     81 H         -10.7401    0.7964   51.1232 H       1  UNL         0.0646
     82 H          -9.1786    0.2787   52.9615 H       1  UNL         0.0644
     83 H         -14.7863    2.5411   52.6657 H       1  UNL         0.0638
     84 H         -16.0938    2.2737   48.5647 H       1  UNL         0.0631
     85 H         -14.1323    0.8830   48.0293 H       1  UNL         0.0623
     86 H         -12.4797    0.3150   49.7608 H       1  UNL         0.0630
     87 H         -17.6225    4.3916   52.6345 H       1  UNL         0.1458
     88 H         -16.1081    3.5686   52.9920 H       1  UNL         0.1458
     89 H         -19.6633    0.9846   63.2662 H       1  UNL         0.0433
     90 H         -18.2469    0.9478   64.3259 H       1  UNL         0.0433
     91 H         -18.6479   -0.4744   63.3209 H       1  UNL         0.0433
     92 H         -21.0225    5.1990   60.6133 H       1  UNL         0.0280
     93 H         -20.9866    3.5220   61.1613 H       1  UNL         0.0280
     94 H         -20.0866    4.0058   59.7085 H       1  UNL         0.0280
@<TRIPOS>BOND
     1     1     2   ar
     2     1     6   ar
     3     1    52    1
     4     2     3   ar
     5     2    53    1
     6     3     4   ar
     7     3    51    1
     8     4     5   ar
     9     4     7    1
    10     5     6   ar
    11     5    54    1
    12     6    55    1
    13     7     8    1
    14     7    15    1
    15     7    56    1
    16     8     9   ar
    17     8    13   ar
    18     9    10   ar
    19     9    14    1
    20    10    11   ar
    21    10    57    1
    22    11    12   ar
    23    11    58    1
    24    12    13   ar
    25    12    59    1
    26    14    60    1
    27    14    61    1
    28    14    62    1
    29    15    16   am
    30    15    50    1
    31    16    17    2
    32    16    18    1
    33    18    19    1
    34    18    23    1
    35    18    63    1
    36    19    20    1
    37    19    64    1
    38    19    65    1
    39    20    21    1
    40    20    66    1
    41    20    67    1
    42    21    22    1
    43    21    24    1
    44    22    23    1
    45    22    68    1
    46    22    69    1
    47    23    70    1
    48    23    71    1
    49    24    25    1
    50    24    72    1
    51    24    73    1
    52    25    26    1
    53    25    74    1
    54    25    75    1
    55    26    27    1
    56    27    28   ar
    57    27    32   ar
    58    28    29   ar
    59    28    76    1
    60    29    30   ar
    61    29    77    1
    62    30    31   ar
    63    30    34    1
    64    31    32   ar
    65    31    78    1
    66    32    33    1
    67    34    35    1
    68    34    79    1
    69    35    36   ar
    70    35    40   ar
    71    36    37   ar
    72    36    80    1
    73    37    38   ar
    74    38    39   ar
    75    38    41    1
    76    39    40   ar
    77    39    81    1
    78    40    82    1
    79    41    42   ar
    80    41    46   ar
    81    42    43   ar
    82    42    83    1
    83    43    44   ar
    84    43    47    1
    85    44    45   ar
    86    44    84    1
    87    45    46   ar
    88    45    85    1
    89    46    86    1
    90    47    48    2
    91    47    49   am
    92    49    87    1
    93    49    88    1
    94    50    89    1
    95    50    90    1
    96    50    91    1
    97    51    92    1
    98    51    93    1
    99    51    94    1
@<TRIPOS>SUBSTRUCTURE
     1 UNL         1 TEMP              0 ****  ****    0 ROOT


##########                                Name:    ZINC000271662144
##########                DOCK_Rotatable_Bonds:                   8
##########                         Heavy_Atoms:                  26
##########                    Molecular_Weight:             390.402
##########                DOCK_Rotatable_Bonds:                   8
##########                       Formal_Charge:          0.00999944
##########                     HBond_Acceptors:                   9
##########                        HBond_Donors:                   3
##########                         Heavy_Atoms:                  26
##########                          Grid_Score:          -27.285788
##########                     Grid_vdw_energy:          -25.512840
##########                      Grid_es_energy:           -1.772947
##########           Internal_energy_repulsive:            9.822217

@<TRIPOS>MOLECULE
ZINC000271662144
 44 45 1 0 0
SMALL
USER_CHARGES


@<TRIPOS>ATOM
      1 C1        -12.0560    0.7578   58.0663 C.3     1  ZINC000271662144   -0.1400
      2 C2        -11.3645   -0.5135   57.5696 C.3     1  ZINC000271662144    0.1200
      3 H3        -12.1020   -1.3083   57.4583 H       1  ZINC000271662144    0.0600
      4 N4        -10.3424   -0.9262   58.5407 N.3     1  ZINC000271662144   -0.6700
      5 C5        -10.8925   -1.8849   59.5084 C.3     1  ZINC000271662144    0.1300
      6 H6        -11.9170   -2.1335   59.2314 H       1  ZINC000271662144    0.1100
      7 C7        -10.0411   -3.1561   59.5072 C.3     1  ZINC000271662144   -0.2000
      8 C8        -10.5019   -4.0775   58.3760 C.3     1  ZINC000271662144    0.4600
      9 F9         -9.7697   -5.2689   58.4175 F       1  ZINC000271662144   -0.1800
     10 F10       -11.8631   -4.3610   58.5305 F       1  ZINC000271662144   -0.1800
     11 F11       -10.2939   -3.4450   57.1455 F       1  ZINC000271662144   -0.1700
     12 C12       -10.8789   -1.2725   60.8853 C.ar    1  ZINC000271662144   -0.0900
     13 C13        -9.6762   -0.9510   61.4864 C.ar    1  ZINC000271662144   -0.0600
     14 C14        -9.6625   -0.3893   62.7489 C.ar    1  ZINC000271662144   -0.1600
     15 C15       -10.8541   -0.1482   63.4117 C.ar    1  ZINC000271662144    0.1000
     16 F16       -10.8419    0.4012   64.6460 F       1  ZINC000271662144   -0.1400
     17 C17       -12.0580   -0.4702   62.8086 C.ar    1  ZINC000271662144   -0.1500
     18 C18       -12.0694   -1.0274   61.5439 C.ar    1  ZINC000271662144   -0.0700
     19 C19       -10.7123   -0.2431   56.2382 C.ar    1  ZINC000271662144   -0.1100
     20 C20       -11.2520   -0.7768   55.0832 C.ar    1  ZINC000271662144   -0.0400
     21 C21       -10.6536   -0.5287   53.8618 C.ar    1  ZINC000271662144   -0.1400
     22 C22        -9.5159    0.2534   53.7958 C.ar    1  ZINC000271662144   -0.0200
     23 C23        -8.9764    0.7880   54.9510 C.ar    1  ZINC000271662144   -0.6800
     24 S24        -7.5258    1.7845   54.8669 S.o2    1  ZINC000271662144    2.7000
     25 N25        -6.5272    1.1020   53.7358 N.am    1  ZINC000271662144   -1.2500
     26 O26        -7.9314    3.0399   54.3389 O.2     1  ZINC000271662144   -0.9600
     27 O27        -6.8691    1.6437   56.1191 O.2     1  ZINC000271662144   -0.9600
     28 C28        -9.5772    0.5436   56.1716 C.ar    1  ZINC000271662144   -0.0100
     29 H29       -12.5277    0.5622   59.0293 H       1  ZINC000271662144    0.0600
     30 H30       -11.3185    1.5527   58.1777 H       1  ZINC000271662144    0.0700
     31 H31       -12.8144    1.0641   57.3457 H       1  ZINC000271662144    0.0600
     32 H32        -9.5333   -1.3076   58.0739 H       1  ZINC000271662144    0.3500
     33 H33        -8.9942   -2.8922   59.3572 H       1  ZINC000271662144    0.1100
     34 H34       -10.1531   -3.6694   60.4622 H       1  ZINC000271662144    0.1200
     35 H35        -8.7469   -1.1390   60.9692 H       1  ZINC000271662144    0.1300
     36 H36        -8.7229   -0.1388   63.2187 H       1  ZINC000271662144    0.1400
     37 H37       -12.9880   -0.2830   63.3248 H       1  ZINC000271662144    0.1400
     38 H38       -13.0084   -1.2783   61.0731 H       1  ZINC000271662144    0.1300
     39 H39       -12.1409   -1.3879   55.1348 H       1  ZINC000271662144    0.1400
     40 H40       -11.0749   -0.9463   52.9592 H       1  ZINC000271662144    0.1400
     41 H41        -9.0480    0.4465   52.8417 H       1  ZINC000271662144    0.1400
     42 H42        -6.8276    1.0062   52.8184 H       1  ZINC000271662144    0.4200
     43 H43        -5.6420    0.7981   53.9904 H       1  ZINC000271662144    0.4200
     44 H44        -9.1559    0.9611   57.0741 H       1  ZINC000271662144    0.1400
@<TRIPOS>BOND
     1     1     2    1
     2     1    29    1
     3     1    30    1
     4     1    31    1
     5     2     3    1
     6     2     4    1
     7     2    19    1
     8     4     5    1
     9     4    32    1
    10     5     6    1
    11     5     7    1
    12     5    12    1
    13     7     8    1
    14     7    33    1
    15     7    34    1
    16     8     9    1
    17     8    10    1
    18     8    11    1
    19    12    18   ar
    20    12    13   ar
    21    13    14   ar
    22    13    35    1
    23    14    15   ar
    24    14    36    1
    25    15    16    1
    26    15    17   ar
    27    17    18   ar
    28    17    37    1
    29    18    38    1
    30    19    28   ar
    31    19    20   ar
    32    20    21   ar
    33    20    39    1
    34    21    22   ar
    35    21    40    1
    36    22    23   ar
    37    22    41    1
    38    23    24    1
    39    23    28   ar
    40    24    25   am
    41    24    26    2
    42    24    27    2
    43    25    42    1
    44    25    43    1
    45    28    44    1
@<TRIPOS>SUBSTRUCTURE
     1 ZINC000271662144        1 TEMP              0 ****  ****    0 ROOT


##########                                Name:    ZINC000441887161
##########                DOCK_Rotatable_Bonds:                   6
##########                         Heavy_Atoms:                  27
##########                    Molecular_Weight:             383.514
##########                DOCK_Rotatable_Bonds:                   6
##########                       Formal_Charge:          -0.0300002
##########                     HBond_Acceptors:                   6
##########                        HBond_Donors:                   1
##########                         Heavy_Atoms:                  27
##########                          Grid_Score:          -27.277151
##########                     Grid_vdw_energy:          -27.139996
##########                      Grid_es_energy:           -0.137156
##########           Internal_energy_repulsive:           17.107019

@<TRIPOS>MOLECULE
ZINC000441887161
 52 54 1 0 0
SMALL
USER_CHARGES


@<TRIPOS>ATOM
      1 C1         -9.2732    0.4533   52.1533 C.3     1  ZINC000441887161   -0.1200
      2 C2         -9.5281    0.2406   53.6233 C.ar    1  ZINC000441887161   -0.0700
      3 C3        -10.4704   -0.6830   54.0347 C.ar    1  ZINC000441887161   -0.1200
      4 C4        -10.7042   -0.8781   55.3833 C.ar    1  ZINC000441887161   -0.0900
      5 C5         -9.9953   -0.1500   56.3201 C.ar    1  ZINC000441887161   -0.1100
      6 C6        -10.2505   -0.3624   57.7900 C.3     1  ZINC000441887161    0.1900
      7 H7         -9.3272   -0.2002   58.3463 H       1  ZINC000441887161    0.1000
      8 C8        -11.3156    0.6253   58.2706 C.3     1  ZINC000441887161    0.1000
      9 N9        -12.5584    0.4033   57.5273 N.pl3   1  ZINC000441887161   -0.4600
     10 C10       -12.9881    1.1072   56.4348 C.2     1  ZINC000441887161   -0.0500
     11 C11       -14.1703    0.5756   56.0691 C.2     1  ZINC000441887161   -0.0200
     12 N12       -14.4546   -0.4254   56.9153 N.2     1  ZINC000441887161   -0.4900
     13 C13       -13.4911   -0.5377   57.7884 C.2     1  ZINC000441887161    0.1800
     14 N14       -10.7196   -1.7325   58.0112 N.am    1  ZINC000441887161   -1.1100
     15 S15       -10.0346   -2.6606   59.1994 S.o2    1  ZINC000441887161    2.6900
     16 O16       -10.7968   -3.8582   59.2626 O.2     1  ZINC000441887161   -0.9600
     17 O17        -8.6332   -2.6427   58.9645 O.2     1  ZINC000441887161   -0.9500
     18 C18       -10.2935   -1.8247   60.7286 C.ar    1  ZINC000441887161   -0.6800
     19 C19        -9.2136   -1.4796   61.5192 C.ar    1  ZINC000441887161   -0.0300
     20 C20        -9.4167   -0.8237   62.7191 C.ar    1  ZINC000441887161   -0.1300
     21 C21       -10.6998   -0.5125   63.1280 C.ar    1  ZINC000441887161   -0.0200
     22 C22       -10.9214    0.2019   64.4362 C.3     1  ZINC000441887161   -0.1300
     23 C23       -11.7801   -0.8566   62.3366 C.ar    1  ZINC000441887161   -0.1000
     24 C24       -13.1791   -0.5169   62.7822 C.3     1  ZINC000441887161   -0.1200
     25 C25       -11.5767   -1.5088   61.1352 C.ar    1  ZINC000441887161   -0.0100
     26 C26        -9.0517    0.7729   55.9086 C.ar    1  ZINC000441887161   -0.0700
     27 C27        -8.2784    1.5665   56.9299 C.3     1  ZINC000441887161   -0.1300
     28 C28        -8.8153    0.9653   54.5604 C.ar    1  ZINC000441887161   -0.1200
     29 H29        -8.4915   -0.2282   51.8177 H       1  ZINC000441887161    0.0700
     30 H30       -10.1886    0.2599   51.5941 H       1  ZINC000441887161    0.0700
     31 H31        -8.9551    1.4822   51.9849 H       1  ZINC000441887161    0.0700
     32 H32       -11.0244   -1.2520   53.3027 H       1  ZINC000441887161    0.1200
     33 H33       -11.4411   -1.5994   55.7047 H       1  ZINC000441887161    0.1200
     34 H34       -11.4970    0.4748   59.3348 H       1  ZINC000441887161    0.1100
     35 H35       -10.9685    1.6447   58.1018 H       1  ZINC000441887161    0.1000
     36 H36       -12.4775    1.9307   55.9578 H       1  ZINC000441887161    0.1700
     37 H37       -14.7820    0.8988   55.2399 H       1  ZINC000441887161    0.1600
     38 H38       -13.4498   -1.2593   58.5908 H       1  ZINC000441887161    0.2000
     39 H39       -11.4316   -2.0960   57.4618 H       1  ZINC000441887161    0.4200
     40 H40        -8.2110   -1.7226   61.1996 H       1  ZINC000441887161    0.1300
     41 H41        -8.5729   -0.5547   63.3372 H       1  ZINC000441887161    0.1300
     42 H42       -10.9094    1.2789   64.2686 H       1  ZINC000441887161    0.0800
     43 H43       -11.8860   -0.0905   64.8512 H       1  ZINC000441887161    0.0800
     44 H44       -10.1290   -0.0658   65.1352 H       1  ZINC000441887161    0.0700
     45 H45       -13.4506    0.4697   62.4067 H       1  ZINC000441887161    0.0800
     46 H46       -13.8752   -1.2588   62.3911 H       1  ZINC000441887161    0.0700
     47 H47       -13.2233   -0.5159   63.8713 H       1  ZINC000441887161    0.0700
     48 H48       -12.4205   -1.7775   60.5171 H       1  ZINC000441887161    0.1400
     49 H49        -7.3691    1.0276   57.1962 H       1  ZINC000441887161    0.0800
     50 H50        -8.0157    2.5383   56.5121 H       1  ZINC000441887161    0.0700
     51 H51        -8.8911    1.7075   57.8203 H       1  ZINC000441887161    0.0600
     52 H52        -8.0781    1.6862   54.2390 H       1  ZINC000441887161    0.1300
@<TRIPOS>BOND
     1     1     2    1
     2     1    29    1
     3     1    30    1
     4     1    31    1
     5     2    28   ar
     6     2     3   ar
     7     3     4   ar
     8     3    32    1
     9     4     5   ar
    10     4    33    1
    11     5     6    1
    12     5    26   ar
    13     6     7    1
    14     6     8    1
    15     6    14    1
    16     8     9    1
    17     8    34    1
    18     8    35    1
    19     9    13    1
    20     9    10    1
    21    10    11    2
    22    10    36    1
    23    11    12    1
    24    11    37    1
    25    12    13    2
    26    13    38    1
    27    14    15   am
    28    14    39    1
    29    15    16    2
    30    15    17    2
    31    15    18    1
    32    18    25   ar
    33    18    19   ar
    34    19    20   ar
    35    19    40    1
    36    20    21   ar
    37    20    41    1
    38    21    22    1
    39    21    23   ar
    40    22    42    1
    41    22    43    1
    42    22    44    1
    43    23    24    1
    44    23    25   ar
    45    24    45    1
    46    24    46    1
    47    24    47    1
    48    25    48    1
    49    26    27    1
    50    26    28   ar
    51    27    49    1
    52    27    50    1
    53    27    51    1
    54    28    52    1
@<TRIPOS>SUBSTRUCTURE
     1 ZINC000441887161        1 TEMP              0 ****  ****    0 ROOT


##########                                Name:    ZINC000516003207
##########                DOCK_Rotatable_Bonds:                   5
##########                         Heavy_Atoms:                  24
##########                    Molecular_Weight:             342.462
##########                DOCK_Rotatable_Bonds:                   5
##########                       Formal_Charge:          -0.0200001
##########                     HBond_Acceptors:                   5
##########                        HBond_Donors:                   1
##########                         Heavy_Atoms:                  24
##########                          Grid_Score:          -27.276857
##########                     Grid_vdw_energy:          -25.927868
##########                      Grid_es_energy:           -1.348989
##########           Internal_energy_repulsive:            9.234249

@<TRIPOS>MOLECULE
ZINC000516003207
 46 49 1 0 0
SMALL
USER_CHARGES


@<TRIPOS>ATOM
      1 C1         -9.0534   -0.2292   65.4292 C.3     1  ZINC000516003207    0.0300
      2 O2         -9.8699   -0.7820   64.3948 O.3     1  ZINC000516003207   -0.3600
      3 C3         -9.5824   -0.2707   63.0917 C.3     1  ZINC000516003207    0.0900
      4 H4         -8.7209    0.3968   63.0788 H       1  ZINC000516003207    0.0800
      5 C5         -9.5414   -1.3537   61.9983 C.3     1  ZINC000516003207   -0.1700
      6 C6        -11.0484   -1.1084   61.8012 C.3     1  ZINC000516003207    0.1500
      7 H7        -11.6797   -1.7338   62.4323 H       1  ZINC000516003207    0.1200
      8 N8        -11.4659   -1.1113   60.3968 N.am    1  ZINC000516003207   -0.7200
      9 C9        -11.9948   -2.2256   59.8534 C.2     1  ZINC000516003207    0.5600
     10 O10       -12.1268   -3.2275   60.5288 O.2     1  ZINC000516003207   -0.5300
     11 C11       -12.4145   -2.2291   58.4356 C.ar    1  ZINC000516003207   -0.1400
     12 C12       -12.2072   -1.0995   57.6415 C.ar    1  ZINC000516003207   -0.0800
     13 C13       -12.5994   -1.1023   56.3177 C.ar    1  ZINC000516003207   -0.1200
     14 C14       -13.1977   -2.2204   55.7710 C.ar    1  ZINC000516003207   -0.0800
     15 C15       -13.4100   -3.3553   56.5537 C.ar    1  ZINC000516003207   -0.0300
     16 C16       -14.0530   -4.5551   55.9637 C.2     1  ZINC000516003207    0.1100
     17 C17       -14.2737   -5.6873   56.6618 C.2     1  ZINC000516003207   -0.2600
     18 S18       -15.0511   -6.8441   55.5844 S.3     1  ZINC000516003207    0.1400
     19 C19       -15.0062   -5.7067   54.3095 C.2     1  ZINC000516003207    0.0600
     20 C20       -15.5303   -5.9543   52.9183 C.3     1  ZINC000516003207   -0.0800
     21 N21       -14.4664   -4.6064   54.7057 N.2     1  ZINC000516003207   -0.4700
     22 C22       -13.0128   -3.3622   57.8867 C.ar    1  ZINC000516003207   -0.0300
     23 C23       -10.8067    0.2935   62.3700 C.3     1  ZINC000516003207   -0.1100
     24 C24       -11.9034    1.0369   63.1334 C.3     1  ZINC000516003207   -0.1200
     25 C25       -11.2577    2.3373   62.6216 C.3     1  ZINC000516003207   -0.1400
     26 C26       -10.6937    1.5108   61.4517 C.3     1  ZINC000516003207   -0.1200
     27 H27        -9.1980    0.8505   65.4682 H       1  ZINC000516003207    0.0400
     28 H28        -9.3335   -0.6681   66.3868 H       1  ZINC000516003207    0.0900
     29 H29        -8.0060   -0.4482   65.2215 H       1  ZINC000516003207    0.0400
     30 H30        -8.9380   -1.0776   61.1335 H       1  ZINC000516003207    0.0900
     31 H31        -9.3075   -2.3482   62.3781 H       1  ZINC000516003207    0.0800
     32 H32       -11.3617   -0.3114   59.8582 H       1  ZINC000516003207    0.4000
     33 H33       -11.7397   -0.2222   58.0635 H       1  ZINC000516003207    0.1300
     34 H34       -12.4378   -0.2261   55.7072 H       1  ZINC000516003207    0.1400
     35 H35       -13.5026   -2.2161   54.7349 H       1  ZINC000516003207    0.1300
     36 H36       -14.0186   -5.8552   57.6977 H       1  ZINC000516003207    0.1800
     37 H37       -15.9371   -6.9637   52.8577 H       1  ZINC000516003207    0.0800
     38 H38       -16.3147   -5.2322   52.6917 H       1  ZINC000516003207    0.0900
     39 H39       -14.7181   -5.8460   52.1994 H       1  ZINC000516003207    0.0900
     40 H40       -13.1752   -4.2387   58.4965 H       1  ZINC000516003207    0.1500
     41 H41       -12.9051    0.8620   62.7409 H       1  ZINC000516003207    0.0800
     42 H42       -11.8434    0.9148   64.2149 H       1  ZINC000516003207    0.0800
     43 H43       -11.9815    3.0917   62.3135 H       1  ZINC000516003207    0.0700
     44 H44       -10.4895    2.7335   63.2858 H       1  ZINC000516003207    0.0800
     45 H45        -9.6672    1.7672   61.1896 H       1  ZINC000516003207    0.0700
     46 H46       -11.3554    1.4690   60.5865 H       1  ZINC000516003207    0.0900
@<TRIPOS>BOND
     1     1     2    1
     2     1    27    1
     3     1    28    1
     4     1    29    1
     5     2     3    1
     6     3     4    1
     7     3    23    1
     8     3     5    1
     9     5     6    1
    10     5    30    1
    11     5    31    1
    12     6     7    1
    13     6     8    1
    14     6    23    1
    15     8     9   am
    16     8    32    1
    17     9    10    2
    18     9    11    1
    19    11    22   ar
    20    11    12   ar
    21    12    13   ar
    22    12    33    1
    23    13    14   ar
    24    13    34    1
    25    14    15   ar
    26    14    35    1
    27    15    16    1
    28    15    22   ar
    29    16    21    1
    30    16    17    2
    31    17    18    1
    32    17    36    1
    33    18    19    1
    34    19    20    1
    35    19    21    2
    36    20    37    1
    37    20    38    1
    38    20    39    1
    39    22    40    1
    40    23    26    1
    41    23    24    1
    42    24    25    1
    43    24    41    1
    44    24    42    1
    45    25    26    1
    46    25    43    1
    47    25    44    1
    48    26    45    1
    49    26    46    1
@<TRIPOS>SUBSTRUCTURE
     1 ZINC000516003207        1 TEMP              0 ****  ****    0 ROOT


##########                                Name:    ZINC000611836474
##########                DOCK_Rotatable_Bonds:                   7
##########                         Heavy_Atoms:                  22
##########                    Molecular_Weight:             366.258
##########                DOCK_Rotatable_Bonds:                   7
##########                       Formal_Charge:          -0.0300004
##########                     HBond_Acceptors:                   5
##########                        HBond_Donors:                   1
##########                         Heavy_Atoms:                  22
##########                          Grid_Score:          -27.264826
##########                     Grid_vdw_energy:          -25.820362
##########                      Grid_es_energy:           -1.444464
##########           Internal_energy_repulsive:           10.117409

@<TRIPOS>MOLECULE
ZINC000611836474
 42 43 1 0 0
SMALL
USER_CHARGES


@<TRIPOS>ATOM
      1 C1        -15.6917   -0.9802   54.2282 C.3     1  ZINC000611836474   -0.1500
      2 C2        -15.4633   -2.3808   54.8004 C.3     1  ZINC000611836474   -0.1400
      3 C3        -14.1172   -2.4219   55.5265 C.3     1  ZINC000611836474    0.1300
      4 N4        -13.9261   -3.7446   56.1265 N.pl3   1  ZINC000611836474   -0.3900
      5 N5        -14.4454   -4.9521   55.6423 N.2     1  ZINC000611836474   -0.2900
      6 C6        -14.0627   -5.9153   56.4409 C.2     1  ZINC000611836474    0.0600
      7 C7        -13.2870   -5.3581   57.4612 C.2     1  ZINC000611836474   -0.2800
      8 C8        -13.2124   -4.0167   57.2427 C.2     1  ZINC000611836474    0.3000
      9 N9        -12.5306   -3.0900   58.0311 N.am    1  ZINC000611836474   -0.6500
     10 C10       -11.2966   -3.3756   58.4918 C.2     1  ZINC000611836474    0.5200
     11 O11       -10.7783   -4.4378   58.2195 O.2     1  ZINC000611836474   -0.4700
     12 C12       -10.5607   -2.3749   59.3452 C.3     1  ZINC000611836474    0.0700
     13 H13       -10.9864   -1.3834   59.1913 H       1  ZINC000611836474    0.1100
     14 C14        -9.0816   -2.3612   58.9544 C.3     1  ZINC000611836474   -0.1800
     15 O15       -10.6864   -2.7389   60.7214 O.3     1  ZINC000611836474   -0.2700
     16 C16       -10.6247   -1.7333   61.6337 C.ar    1  ZINC000611836474    0.1500
     17 C17        -9.4008   -1.3441   62.1568 C.ar    1  ZINC000611836474   -0.2000
     18 C18        -9.3406   -0.3215   63.0844 C.ar    1  ZINC000611836474   -0.0600
     19 C19       -10.4991    0.3135   63.4915 C.ar    1  ZINC000611836474   -0.1100
     20 C20       -10.4301    1.4280   64.5036 C.3     1  ZINC000611836474   -0.1100
     21 C21       -11.7210   -0.0719   62.9715 C.ar    1  ZINC000611836474   -0.0500
     22 C22       -11.7863   -1.0901   62.0393 C.ar    1  ZINC000611836474   -0.1200
     23 Br23      -13.4575   -1.6169   61.3284 Br      1  ZINC000611836474   -0.0300
     24 H24       -16.6506   -0.9511   53.7110 H       1  ZINC000611836474    0.0600
     25 H25       -15.6941   -0.2523   55.0395 H       1  ZINC000611836474    0.0600
     26 H26       -14.8928   -0.7398   53.5266 H       1  ZINC000611836474    0.0600
     27 H27       -16.2621   -2.6212   55.5020 H       1  ZINC000611836474    0.0800
     28 H28       -15.4609   -3.1087   53.9892 H       1  ZINC000611836474    0.0600
     29 H29       -13.3146   -2.2261   54.8153 H       1  ZINC000611836474    0.0800
     30 H30       -14.1029   -1.6626   56.3085 H       1  ZINC000611836474    0.1000
     31 H31       -14.3052   -6.9619   56.3308 H       1  ZINC000611836474    0.1900
     32 H32       -12.8258   -5.8965   58.2760 H       1  ZINC000611836474    0.1700
     33 H33       -12.9445   -2.2399   58.2479 H       1  ZINC000611836474    0.4100
     34 H34        -8.9857   -2.0836   57.9047 H       1  ZINC000611836474    0.0800
     35 H35        -8.5494   -1.6375   59.5717 H       1  ZINC000611836474    0.0800
     36 H36        -8.6559   -3.3528   59.1084 H       1  ZINC000611836474    0.0800
     37 H37        -8.4953   -1.8402   61.8399 H       1  ZINC000611836474    0.1400
     38 H38        -8.3875   -0.0183   63.4918 H       1  ZINC000611836474    0.1300
     39 H39       -10.3059    2.3801   63.9876 H       1  ZINC000611836474    0.0700
     40 H40       -11.3513    1.4476   65.0858 H       1  ZINC000611836474    0.0700
     41 H41        -9.5830    1.2623   65.1692 H       1  ZINC000611836474    0.0700
     42 H42       -12.6247    0.4257   63.2912 H       1  ZINC000611836474    0.1400
@<TRIPOS>BOND
     1     1     2    1
     2     1    24    1
     3     1    25    1
     4     1    26    1
     5     2     3    1
     6     2    27    1
     7     2    28    1
     8     3     4    1
     9     3    29    1
    10     3    30    1
    11     4     8    1
    12     4     5    1
    13     5     6    2
    14     6     7    1
    15     6    31    1
    16     7     8    2
    17     7    32    1
    18     8     9    1
    19     9    10   am
    20     9    33    1
    21    10    11    2
    22    10    12    1
    23    12    13    1
    24    12    14    1
    25    12    15    1
    26    14    34    1
    27    14    35    1
    28    14    36    1
    29    15    16    1
    30    16    22   ar
    31    16    17   ar
    32    17    18   ar
    33    17    37    1
    34    18    19   ar
    35    18    38    1
    36    19    20    1
    37    19    21   ar
    38    20    39    1
    39    20    40    1
    40    20    41    1
    41    21    22   ar
    42    21    42    1
    43    22    23    1
@<TRIPOS>SUBSTRUCTURE
     1 ZINC000611836474        1 TEMP              0 ****  ****    0 ROOT


##########                                Name:    ZINC000461336108
##########                DOCK_Rotatable_Bonds:                   5
##########                         Heavy_Atoms:                  26
##########                    Molecular_Weight:             373.522
##########                DOCK_Rotatable_Bonds:                   5
##########                       Formal_Charge:        -3.42727e-07
##########                     HBond_Acceptors:                   7
##########                        HBond_Donors:                   0
##########                         Heavy_Atoms:                  26
##########                          Grid_Score:          -27.238682
##########                     Grid_vdw_energy:          -26.551481
##########                      Grid_es_energy:           -0.687201
##########           Internal_energy_repulsive:           11.267738

@<TRIPOS>MOLECULE
ZINC000461336108
 53 56 1 0 0
SMALL
USER_CHARGES


@<TRIPOS>ATOM
      1 C1        -10.0585    3.4415   51.1920 C.3     1  ZINC000461336108   -0.1300
      2 C2        -11.5077    3.0011   50.9753 C.3     1  ZINC000461336108    0.0700
      3 H3        -12.1707    3.6375   51.5614 H       1  ZINC000461336108    0.0800
      4 C4        -11.8546    3.1271   49.5188 C.2     1  ZINC000461336108    0.5300
      5 O5        -11.4882    4.1144   48.9174 O.2     1  ZINC000461336108   -0.5300
      6 N6        -12.5501    2.1958   48.8576 N.am    1  ZINC000461336108   -0.6100
      7 C7        -12.8688    2.4302   47.4471 C.3     1  ZINC000461336108    0.0700
      8 C8        -13.0058    0.9555   49.4789 C.3     1  ZINC000461336108    0.1200
      9 C9        -12.9814    1.0924   51.0024 C.3     1  ZINC000461336108    0.0400
     10 N10       -11.6631    1.6057   51.4074 N.3     1  ZINC000461336108   -0.4300
     11 C11       -11.4844    1.4901   52.7767 C.2     1  ZINC000461336108    0.3300
     12 N12       -12.0650    2.2157   53.7032 N.2     1  ZINC000461336108   -0.2500
     13 N13       -11.6696    1.8372   54.8659 N.2     1  ZINC000461336108   -0.2800
     14 C14       -10.8203    0.8557   54.7515 C.2     1  ZINC000461336108    0.2000
     15 C15       -10.1300    0.1355   55.8810 C.3     1  ZINC000461336108   -0.0300
     16 C16       -11.1605   -0.6612   56.6834 C.3     1  ZINC000461336108   -0.0900
     17 C17       -11.6235   -1.9060   55.8864 C.3     1  ZINC000461336108   -0.1200
     18 C18       -12.1268   -2.8573   57.0004 C.3     1  ZINC000461336108   -0.1200
     19 C19       -11.1321   -2.6420   58.1597 C.3     1  ZINC000461336108   -0.1300
     20 C20       -10.5178   -1.2457   57.9582 C.3     1  ZINC000461336108   -0.1200
     21 N21       -10.6760    0.5963   53.4167 N.pl3   1  ZINC000461336108   -0.4900
     22 C22        -9.8237   -0.4239   52.8010 C.3     1  ZINC000461336108    0.1700
     23 C23        -8.4308    0.1241   52.6259 C.2     1  ZINC000461336108   -0.2400
     24 C24        -7.8394    0.9967   53.4433 C.2     1  ZINC000461336108   -0.0900
     25 C25        -6.5533    1.3571   53.0798 C.2     1  ZINC000461336108   -0.1400
     26 C26        -6.1003    0.7772   51.9673 C.2     1  ZINC000461336108   -0.2000
     27 S27        -7.3336   -0.2949   51.3167 S.3     1  ZINC000461336108    0.1200
     28 H28        -9.3942    2.8060   50.6064 H       1  ZINC000461336108    0.0800
     29 H29        -9.9425    4.4779   50.8753 H       1  ZINC000461336108    0.0800
     30 H30        -9.8065    3.3542   52.2489 H       1  ZINC000461336108    0.0700
     31 H31       -12.4609    3.3924   47.1375 H       1  ZINC000461336108    0.0900
     32 H32       -12.4318    1.6379   46.8394 H       1  ZINC000461336108    0.0700
     33 H33       -13.9508    2.4347   47.3149 H       1  ZINC000461336108    0.0600
     34 H34       -14.0228    0.7394   49.1515 H       1  ZINC000461336108    0.0900
     35 H35       -12.3498    0.1384   49.1786 H       1  ZINC000461336108    0.0900
     36 H36       -13.7589    1.7874   51.3195 H       1  ZINC000461336108    0.0500
     37 H37       -13.1507    0.1175   51.4598 H       1  ZINC000461336108    0.1100
     38 H38        -9.3812   -0.5444   55.4747 H       1  ZINC000461336108    0.0800
     39 H39        -9.6450    0.8623   56.5328 H       1  ZINC000461336108    0.1000
     40 H40       -12.0124   -0.0315   56.9401 H       1  ZINC000461336108    0.0900
     41 H41       -12.4330   -1.6484   55.2036 H       1  ZINC000461336108    0.0600
     42 H42       -10.7881   -2.3515   55.3463 H       1  ZINC000461336108    0.0600
     43 H43       -13.1361   -2.5842   57.3080 H       1  ZINC000461336108    0.0700
     44 H44       -12.0976   -3.8924   56.6599 H       1  ZINC000461336108    0.0700
     45 H45       -11.6564   -2.6850   59.1143 H       1  ZINC000461336108    0.0700
     46 H46       -10.3511   -3.4017   58.1275 H       1  ZINC000461336108    0.0600
     47 H47        -9.4387   -1.3277   57.8282 H       1  ZINC000461336108    0.0700
     48 H48       -10.7439   -0.6110   58.8151 H       1  ZINC000461336108    0.0700
     49 H49        -9.7898   -1.3044   53.4426 H       1  ZINC000461336108    0.1200
     50 H50       -10.2310   -0.6987   51.8280 H       1  ZINC000461336108    0.1000
     51 H51        -8.3272    1.3922   54.3219 H       1  ZINC000461336108    0.1400
     52 H52        -5.9617    2.0552   53.6533 H       1  ZINC000461336108    0.1500
     53 H53        -5.1242    0.9386   51.5341 H       1  ZINC000461336108    0.1700
@<TRIPOS>BOND
     1     1     2    1
     2     1    28    1
     3     1    29    1
     4     1    30    1
     5     2     3    1
     6     2    10    1
     7     2     4    1
     8     4     5    2
     9     4     6   am
    10     6     7    1
    11     6     8    1
    12     7    31    1
    13     7    32    1
    14     7    33    1
    15     8     9    1
    16     8    34    1
    17     8    35    1
    18     9    10    1
    19     9    36    1
    20     9    37    1
    21    10    11    1
    22    11    21    1
    23    11    12    2
    24    12    13    1
    25    13    14    2
    26    14    15    1
    27    14    21    1
    28    15    16    1
    29    15    38    1
    30    15    39    1
    31    16    20    1
    32    16    17    1
    33    16    40    1
    34    17    18    1
    35    17    41    1
    36    17    42    1
    37    18    19    1
    38    18    43    1
    39    18    44    1
    40    19    20    1
    41    19    45    1
    42    19    46    1
    43    20    47    1
    44    20    48    1
    45    21    22    1
    46    22    23    1
    47    22    49    1
    48    22    50    1
    49    23    27    1
    50    23    24    2
    51    24    25    1
    52    24    51    1
    53    25    26    2
    54    25    52    1
    55    26    27    1
    56    26    53    1
@<TRIPOS>SUBSTRUCTURE
     1 ZINC000461336108        1 TEMP              0 ****  ****    0 ROOT


##########                                Name:    ZINC000151303733
##########                DOCK_Rotatable_Bonds:                   7
##########                         Heavy_Atoms:                  26
##########                    Molecular_Weight:             369.444
##########                DOCK_Rotatable_Bonds:                   7
##########                       Formal_Charge:        -1.93715e-07
##########                     HBond_Acceptors:                   7
##########                        HBond_Donors:                   2
##########                         Heavy_Atoms:                  26
##########                          Grid_Score:          -27.231911
##########                     Grid_vdw_energy:          -25.850182
##########                      Grid_es_energy:           -1.381729
##########           Internal_energy_repulsive:           10.269128

@<TRIPOS>MOLECULE
ZINC000151303733
 45 48 1 0 0
SMALL
USER_CHARGES


@<TRIPOS>ATOM
      1 C1        -12.1848   -3.4865   58.3083 C.3     1  ZINC000151303733   -0.1000
      2 C2        -13.5192   -3.6515   57.6276 C.2     1  ZINC000151303733   -0.1200
      3 C3        -13.6391   -4.1391   56.3921 C.2     1  ZINC000151303733   -0.2000
      4 S4        -15.3365   -4.1846   55.9346 S.3     1  ZINC000151303733    0.1200
      5 C5        -15.8076   -3.5187   57.4927 C.2     1  ZINC000151303733   -0.2400
      6 C6        -14.7174   -3.3130   58.2409 C.2     1  ZINC000151303733    0.1200
      7 N7        -14.7802   -2.7854   59.5440 N.am    1  ZINC000151303733   -0.6400
      8 C8        -15.6331   -3.3130   60.4443 C.2     1  ZINC000151303733    0.5100
      9 O9        -16.3469   -4.2427   60.1313 O.2     1  ZINC000151303733   -0.5100
     10 C10       -15.7003   -2.7480   61.8398 C.3     1  ZINC000151303733    0.1000
     11 N11       -14.7926   -1.6032   61.9473 N.am    1  ZINC000151303733   -0.7100
     12 C12       -14.6803   -0.9395   63.1149 C.2     1  ZINC000151303733    0.5200
     13 O13       -15.3319   -1.2892   64.0762 O.2     1  ZINC000151303733   -0.5100
     14 C14       -13.7452    0.2370   63.2260 C.3     1  ZINC000151303733    0.1600
     15 H15       -14.0002    0.9895   62.4799 H       1  ZINC000151303733    0.1300
     16 C16       -12.3186   -0.2154   63.0393 C.ar    1  ZINC000151303733   -0.0900
     17 C17       -11.6506   -0.8218   62.0012 C.ar    1  ZINC000151303733   -0.0900
     18 C18       -10.3047   -1.1239   62.1271 C.ar    1  ZINC000151303733   -0.0800
     19 C19        -9.6293   -0.8172   63.2950 C.ar    1  ZINC000151303733   -0.1200
     20 C20       -10.2900   -0.2089   64.3425 C.ar    1  ZINC000151303733   -0.0400
     21 C21       -11.6463    0.0986   64.2230 C.ar    1  ZINC000151303733   -0.1500
     22 C22       -12.6065    0.7340   65.1457 C.2     1  ZINC000151303733    0.5600
     23 O23       -12.3387    1.1276   66.2641 O.2     1  ZINC000151303733   -0.5100
     24 N24       -13.8208    0.8158   64.5723 N.am    1  ZINC000151303733   -0.5700
     25 C25       -15.0195    1.3878   65.1905 C.3     1  ZINC000151303733    0.0900
     26 C26       -15.1006    2.9120   65.2972 C.3     1  ZINC000151303733   -0.1800
     27 C27       -15.9765    2.1682   64.2871 C.3     1  ZINC000151303733   -0.1900
     28 H28       -11.9384   -4.3992   58.8509 H       1  ZINC000151303733    0.0700
     29 H29       -11.4170   -3.2902   57.5600 H       1  ZINC000151303733    0.0700
     30 H30       -12.2339   -2.6508   59.0064 H       1  ZINC000151303733    0.0600
     31 H31       -12.8180   -4.4574   55.7669 H       1  ZINC000151303733    0.1700
     32 H32       -16.8220   -3.3117   57.8002 H       1  ZINC000151303733    0.2000
     33 H33       -14.2096   -2.0420   59.7942 H       1  ZINC000151303733    0.4200
     34 H34       -16.7194   -2.4248   62.0521 H       1  ZINC000151303733    0.1100
     35 H35       -15.4053   -3.5142   62.5566 H       1  ZINC000151303733    0.1100
     36 H36       -14.2723   -1.3228   61.1781 H       1  ZINC000151303733    0.4100
     37 H37       -12.1753   -1.0628   61.0884 H       1  ZINC000151303733    0.1300
     38 H38        -9.7811   -1.6004   61.3116 H       1  ZINC000151303733    0.1400
     39 H39        -8.5800   -1.0555   63.3872 H       1  ZINC000151303733    0.1400
     40 H40        -9.7590    0.0292   65.2523 H       1  ZINC000151303733    0.1400
     41 H41       -15.4561    0.8024   65.9997 H       1  ZINC000151303733    0.1400
     42 H42       -15.5905    3.3295   66.1769 H       1  ZINC000151303733    0.1000
     43 H43       -14.2620    3.4890   64.9076 H       1  ZINC000151303733    0.1300
     44 H44       -15.7142    2.2559   63.2328 H       1  ZINC000151303733    0.1000
     45 H45       -17.0427    2.0964   64.5021 H       1  ZINC000151303733    0.1000
@<TRIPOS>BOND
     1     1     2    1
     2     1    28    1
     3     1    29    1
     4     1    30    1
     5     2     6    1
     6     2     3    2
     7     3     4    1
     8     3    31    1
     9     4     5    1
    10     5     6    2
    11     5    32    1
    12     6     7    1
    13     7     8   am
    14     7    33    1
    15     8     9    2
    16     8    10    1
    17    10    11    1
    18    10    34    1
    19    10    35    1
    20    11    12   am
    21    11    36    1
    22    12    13    2
    23    12    14    1
    24    14    15    1
    25    14    24    1
    26    14    16    1
    27    16    21   ar
    28    16    17   ar
    29    17    18   ar
    30    17    37    1
    31    18    19   ar
    32    18    38    1
    33    19    20   ar
    34    19    39    1
    35    20    21   ar
    36    20    40    1
    37    21    22    1
    38    22    23    2
    39    22    24   am
    40    24    25    1
    41    25    27    1
    42    25    26    1
    43    25    41    1
    44    26    27    1
    45    26    42    1
    46    26    43    1
    47    27    44    1
    48    27    45    1
@<TRIPOS>SUBSTRUCTURE
     1 ZINC000151303733        1 TEMP              0 ****  ****    0 ROOT


##########                                Name:    ZINC001400108193
##########                DOCK_Rotatable_Bonds:                   9
##########                         Heavy_Atoms:                  25
##########                    Molecular_Weight:              344.41
##########                DOCK_Rotatable_Bonds:                   9
##########                       Formal_Charge:           0.0200001
##########                     HBond_Acceptors:                   6
##########                        HBond_Donors:                   2
##########                         Heavy_Atoms:                  25
##########                          Grid_Score:          -27.227098
##########                     Grid_vdw_energy:          -26.202505
##########                      Grid_es_energy:           -1.024593
##########           Internal_energy_repulsive:            7.722064

@<TRIPOS>MOLECULE
ZINC001400108193
 49 50 1 0 0
SMALL
USER_CHARGES


@<TRIPOS>ATOM
      1 C1          5.9016   -0.7230   44.0900 C.3     1  ZINC001400108193   -0.0800
      2 C2          4.6605    0.1026   43.8683 C.2     1  ZINC001400108193   -0.0100
      3 C3          3.4542   -0.1479   44.3999 C.2     1  ZINC001400108193   -0.1600
      4 C4          2.5665    0.9151   43.9064 C.2     1  ZINC001400108193   -0.2300
      5 C5          1.1335    1.0885   44.2036 C.2     1  ZINC001400108193    0.5900
      6 O6          0.5085    1.9904   43.6792 O.2     1  ZINC001400108193   -0.5300
      7 N7          0.5156    0.2476   45.0565 N.am    1  ZINC001400108193   -0.7300
      8 C8         -0.9086    0.4210   45.3533 C.3     1  ZINC001400108193    0.1100
      9 C9         -1.1512    0.1838   46.8452 C.3     1  ZINC001400108193    0.1300
     10 H10        -2.1692    0.4791   47.0992 H       1  ZINC001400108193    0.1000
     11 C11        -0.9559   -1.2998   47.1641 C.3     1  ZINC001400108193   -0.1600
     12 N12        -0.2022    0.9803   47.6271 N.am    1  ZINC001400108193   -0.7300
     13 C13        -0.6158    2.1022   48.2488 C.2     1  ZINC001400108193    0.5200
     14 O14        -1.7740    2.4516   48.1623 O.2     1  ZINC001400108193   -0.5100
     15 C15         0.3608    2.9226   49.0516 C.3     1  ZINC001400108193    0.0700
     16 H16         1.3788    2.6573   48.7664 H       1  ZINC001400108193    0.1000
     17 C17         0.1252    4.4091   48.7765 C.3     1  ZINC001400108193   -0.1800
     18 O18         0.1723    2.6601   50.4435 O.3     1  ZINC001400108193   -0.2800
     19 C19         1.2773    2.3372   51.1656 C.ar    1  ZINC001400108193    0.1200
     20 C20         1.9778    1.1739   50.8812 C.ar    1  ZINC001400108193   -0.2100
     21 C21         3.1010    0.8482   51.6164 C.ar    1  ZINC001400108193   -0.0800
     22 C22         3.5243    1.6777   52.6384 C.ar    1  ZINC001400108193   -0.1200
     23 C23         4.7465    1.3168   53.4429 C.3     1  ZINC001400108193   -0.1100
     24 C24         2.8310    2.8403   52.9204 C.ar    1  ZINC001400108193   -0.0800
     25 C25         1.7072    3.1706   52.1880 C.ar    1  ZINC001400108193   -0.1400
     26 C26         3.3450    1.7038   43.1110 C.2     1  ZINC001400108193    0.0200
     27 O27         4.5854    1.2059   43.1078 O.3     1  ZINC001400108193   -0.1700
     28 H28         5.9616   -1.5003   43.3282 H       1  ZINC001400108193    0.0900
     29 H29         6.7808   -0.0820   44.0251 H       1  ZINC001400108193    0.0800
     30 H30         5.8600   -1.1839   45.0769 H       1  ZINC001400108193    0.0900
     31 H31         3.1896   -0.9635   45.0564 H       1  ZINC001400108193    0.1600
     32 H32         1.0138   -0.4725   45.4739 H       1  ZINC001400108193    0.4000
     33 H33        -1.4906   -0.2944   44.7723 H       1  ZINC001400108193    0.0800
     34 H34        -1.2133    1.4344   45.0923 H       1  ZINC001400108193    0.0900
     35 H35        -1.1289   -1.4688   48.2269 H       1  ZINC001400108193    0.0700
     36 H36        -1.6620   -1.8924   46.5824 H       1  ZINC001400108193    0.0700
     37 H37         0.0621   -1.5952   46.9101 H       1  ZINC001400108193    0.0600
     38 H38         0.7238    0.7002   47.6972 H       1  ZINC001400108193    0.4000
     39 H39         0.2689    4.6095   47.7148 H       1  ZINC001400108193    0.0800
     40 H40        -0.8929    4.6745   49.0617 H       1  ZINC001400108193    0.0800
     41 H41         0.8315    5.0025   49.3571 H       1  ZINC001400108193    0.0800
     42 H42         1.6448    0.5234   50.0860 H       1  ZINC001400108193    0.1300
     43 H43         3.6464   -0.0574   51.3957 H       1  ZINC001400108193    0.1300
     44 H44         5.6309    1.7468   52.9729 H       1  ZINC001400108193    0.0700
     45 H45         4.6448    1.7102   54.4543 H       1  ZINC001400108193    0.0700
     46 H46         4.8475    0.2322   53.4833 H       1  ZINC001400108193    0.0700
     47 H47         3.1660    3.4887   53.7164 H       1  ZINC001400108193    0.1300
     48 H48         1.1638    4.0769   52.4111 H       1  ZINC001400108193    0.1300
     49 H49         3.0158    2.5829   42.5768 H       1  ZINC001400108193    0.2100
@<TRIPOS>BOND
     1     1     2    1
     2     1    28    1
     3     1    29    1
     4     1    30    1
     5     2    27    1
     6     2     3    2
     7     3     4    1
     8     3    31    1
     9     4     5    1
    10     4    26    2
    11     5     6    2
    12     5     7   am
    13     7     8    1
    14     7    32    1
    15     8     9    1
    16     8    33    1
    17     8    34    1
    18     9    10    1
    19     9    11    1
    20     9    12    1
    21    11    35    1
    22    11    36    1
    23    11    37    1
    24    12    13   am
    25    12    38    1
    26    13    14    2
    27    13    15    1
    28    15    16    1
    29    15    17    1
    30    15    18    1
    31    17    39    1
    32    17    40    1
    33    17    41    1
    34    18    19    1
    35    19    25   ar
    36    19    20   ar
    37    20    21   ar
    38    20    42    1
    39    21    22   ar
    40    21    43    1
    41    22    23    1
    42    22    24   ar
    43    23    44    1
    44    23    45    1
    45    23    46    1
    46    24    25   ar
    47    24    47    1
    48    25    48    1
    49    26    27    1
    50    26    49    1
@<TRIPOS>SUBSTRUCTURE
     1 ZINC001400108193        1 TEMP              0 ****  ****    0 ROOT


##########                                Name:    ZINC000443933644
##########                DOCK_Rotatable_Bonds:                   8
##########                         Heavy_Atoms:                  27
##########                    Molecular_Weight:             402.438
##########                DOCK_Rotatable_Bonds:                   8
##########                       Formal_Charge:          0.00999922
##########                     HBond_Acceptors:                   9
##########                        HBond_Donors:                   2
##########                         Heavy_Atoms:                  27
##########                          Grid_Score:          -27.216801
##########                     Grid_vdw_energy:          -23.757427
##########                      Grid_es_energy:           -3.459373
##########           Internal_energy_repulsive:           34.603569

@<TRIPOS>MOLECULE
ZINC000443933644
 48 49 1 0 0
SMALL
USER_CHARGES


@<TRIPOS>ATOM
      1 C1        -15.4782   -0.8898   57.5075 C.3     1  ZINC000443933644   -0.1500
      2 C2        -13.9968   -1.1620   57.2385 C.3     1  ZINC000443933644   -0.1400
      3 C3        -13.1850    0.1015   57.5307 C.3     1  ZINC000443933644   -0.1000
      4 H4        -13.8198    0.9786   57.4046 H       1  ZINC000443933644    0.1000
      5 C5        -12.0033    0.1837   56.5623 C.3     1  ZINC000443933644   -0.1700
      6 C6        -12.6637    0.0517   58.9683 C.3     1  ZINC000443933644    0.1200
      7 H7        -11.6396   -0.3216   58.9708 H       1  ZINC000443933644    0.1300
      8 N8        -13.5106   -0.8403   59.7641 N.am    1  ZINC000443933644   -1.1100
      9 S9        -12.8360   -2.1161   60.5763 S.o2    1  ZINC000443933644    2.6900
     10 O10       -13.8741   -2.6856   61.3621 O.2     1  ZINC000443933644   -0.9400
     11 O11       -12.0931   -2.8551   59.6166 O.2     1  ZINC000443933644   -0.9400
     12 C12       -11.6620   -1.4510   61.7096 C.ar    1  ZINC000443933644   -0.7000
     13 C13       -12.0905   -0.6214   62.7595 C.ar    1  ZINC000443933644    0.0500
     14 C14       -13.4497   -0.3058   62.9301 C.ar    1  ZINC000443933644   -0.1400
     15 C15       -13.8302    0.5006   63.9583 C.ar    1  ZINC000443933644   -0.0800
     16 C16       -12.8913    1.0202   64.8474 C.ar    1  ZINC000443933644   -0.1200
     17 C17       -11.5666    0.7360   64.7125 C.ar    1  ZINC000443933644   -0.0900
     18 C18       -11.1369   -0.0927   63.6641 C.ar    1  ZINC000443933644   -0.0900
     19 C19        -9.7725   -0.4091   63.4930 C.ar    1  ZINC000443933644    0.2300
     20 N20        -8.8155    0.1011   64.3722 N.am    1  ZINC000443933644   -0.6700
     21 C21        -8.4792   -0.5915   65.4783 C.2     1  ZINC000443933644    0.5100
     22 C22        -7.4462   -0.0408   66.4273 C.3     1  ZINC000443933644   -0.1700
     23 O23        -9.0080   -1.6582   65.7098 O.2     1  ZINC000443933644   -0.5100
     24 C24        -9.3931   -1.2265   62.4502 C.ar    1  ZINC000443933644   -0.1600
     25 C25       -10.3397   -1.7451   61.5718 C.ar    1  ZINC000443933644    0.0400
     26 C26       -12.6955    1.4575   59.5714 C.3     1  ZINC000443933644    0.4300
     27 F27       -12.0303    2.3457   58.7194 F       1  ZINC000443933644   -0.1700
     28 F28       -14.0238    1.8678   59.7279 F       1  ZINC000443933644   -0.1600
     29 F29       -12.0615    1.4443   60.8183 F       1  ZINC000443933644   -0.1700
     30 H30       -15.6116   -0.6054   58.5512 H       1  ZINC000443933644    0.0500
     31 H31       -15.8216   -0.0803   56.8635 H       1  ZINC000443933644    0.0600
     32 H32       -16.0566   -1.7900   57.2993 H       1  ZINC000443933644    0.0600
     33 H33       -13.6533   -1.9715   57.8825 H       1  ZINC000443933644    0.0700
     34 H34       -13.8633   -1.4464   56.1948 H       1  ZINC000443933644    0.0900
     35 H35       -12.3741    0.3368   55.5487 H       1  ZINC000443933644    0.0700
     36 H36       -11.3602    1.0176   56.8437 H       1  ZINC000443933644    0.0600
     37 H37       -11.4338   -0.7446   56.6044 H       1  ZINC000443933644    0.0700
     38 H38       -14.4665   -0.6837   59.8154 H       1  ZINC000443933644    0.4300
     39 H39       -14.1884   -0.7010   62.2483 H       1  ZINC000443933644    0.1400
     40 H40       -14.8750    0.7418   64.0868 H       1  ZINC000443933644    0.1300
     41 H41       -13.2193    1.6577   65.6551 H       1  ZINC000443933644    0.1300
     42 H42       -10.8500    1.1462   65.4086 H       1  ZINC000443933644    0.1300
     43 H43        -8.3928    0.9544   64.1869 H       1  ZINC000443933644    0.4200
     44 H44        -7.0866    0.9188   66.0558 H       1  ZINC000443933644    0.0800
     45 H45        -7.8934    0.0952   67.4120 H       1  ZINC000443933644    0.1000
     46 H46        -6.6116   -0.7380   66.5004 H       1  ZINC000443933644    0.1000
     47 H47        -8.3497   -1.4709   62.3159 H       1  ZINC000443933644    0.1500
     48 H48       -10.0192   -2.3835   60.7619 H       1  ZINC000443933644    0.1500
@<TRIPOS>BOND
     1     1     2    1
     2     1    30    1
     3     1    31    1
     4     1    32    1
     5     2     3    1
     6     2    33    1
     7     2    34    1
     8     3     4    1
     9     3     5    1
    10     3     6    1
    11     5    35    1
    12     5    36    1
    13     5    37    1
    14     6     7    1
    15     6     8    1
    16     6    26    1
    17     8     9   am
    18     8    38    1
    19     9    10    2
    20     9    11    2
    21     9    12    1
    22    12    25   ar
    23    12    13   ar
    24    13    18   ar
    25    13    14   ar
    26    14    15   ar
    27    14    39    1
    28    15    16   ar
    29    15    40    1
    30    16    17   ar
    31    16    41    1
    32    17    18   ar
    33    17    42    1
    34    18    19   ar
    35    19    20    1
    36    19    24   ar
    37    20    21   am
    38    20    43    1
    39    21    22    1
    40    21    23    2
    41    22    44    1
    42    22    45    1
    43    22    46    1
    44    24    25   ar
    45    24    47    1
    46    25    48    1
    47    26    27    1
    48    26    28    1
    49    26    29    1
@<TRIPOS>SUBSTRUCTURE
     1 ZINC000443933644        1 TEMP              0 ****  ****    0 ROOT


##########                                Name:    ZINC001060733018
##########                DOCK_Rotatable_Bonds:                   7
##########                         Heavy_Atoms:                  24
##########                    Molecular_Weight:             342.429
##########                DOCK_Rotatable_Bonds:                   7
##########                       Formal_Charge:           0.0200001
##########                     HBond_Acceptors:                   6
##########                        HBond_Donors:                   2
##########                         Heavy_Atoms:                  24
##########                          Grid_Score:          -27.213806
##########                     Grid_vdw_energy:          -25.572515
##########                      Grid_es_energy:           -1.641290
##########           Internal_energy_repulsive:            7.765254

@<TRIPOS>MOLECULE
ZINC001060733018
 52 54 1 0 0
SMALL
USER_CHARGES


@<TRIPOS>ATOM
      1 O1        -13.8161   -4.0360   55.0991 O.2     1  ZINC001060733018   -0.5000
      2 C2        -13.5463   -4.4582   56.2035 C.2     1  ZINC001060733018    0.4700
      3 N3        -12.5095   -3.9373   56.8893 N.am    1  ZINC001060733018   -0.7100
      4 C4        -11.7059   -2.8641   56.2989 C.3     1  ZINC001060733018    0.1200
      5 C5        -11.1080   -2.0027   57.4131 C.3     1  ZINC001060733018   -0.1000
      6 H6        -10.4642   -1.2392   56.9762 H       1  ZINC001060733018    0.0800
      7 C7        -12.2356   -1.3305   58.1989 C.3     1  ZINC001060733018   -0.1100
      8 C8        -11.6376   -0.4691   59.3130 C.3     1  ZINC001060733018   -0.1300
      9 C9        -10.8156   -1.3516   60.2546 C.3     1  ZINC001060733018    0.1400
     10 H10       -11.4594   -2.1151   60.6914 H       1  ZINC001060733018    0.0900
     11 N11       -10.2431   -0.5268   61.3214 N.am    1  ZINC001060733018   -0.7300
     12 C12       -10.8621   -0.4451   62.5158 C.2     1  ZINC001060733018    0.5200
     13 O13       -11.8923   -1.0555   62.7079 O.2     1  ZINC001060733018   -0.5400
     14 C14       -10.2741    0.4048   63.6126 C.3     1  ZINC001060733018   -0.1000
     15 H15        -9.6867    1.2106   63.1725 H       1  ZINC001060733018    0.1000
     16 C16        -9.3736   -0.4574   64.4986 C.3     1  ZINC001060733018   -0.1100
     17 C17        -8.7144    0.4122   65.5701 C.3     1  ZINC001060733018   -0.1200
     18 C18        -9.7938    1.0073   66.4795 C.3     1  ZINC001060733018   -0.0800
     19 C19       -10.7907    1.7893   65.6191 C.3     1  ZINC001060733018   -0.1300
     20 C20       -10.5258    3.2790   65.4023 C.3     1  ZINC001060733018   -0.1700
     21 C21       -11.6688    2.8287   66.3147 C.3     1  ZINC001060733018   -0.1700
     22 C22       -11.4037    0.9996   64.4590 C.3     1  ZINC001060733018   -0.0600
     23 C23        -9.6881   -2.0239   59.4688 C.3     1  ZINC001060733018   -0.1200
     24 C24       -10.2860   -2.8853   58.3546 C.3     1  ZINC001060733018   -0.1100
     25 C25       -14.3740   -5.5610   56.8116 C.3     1  ZINC001060733018    0.2600
     26 F26       -15.4496   -5.0046   57.5122 F       1  ZINC001060733018   -0.1700
     27 F27       -14.8589   -6.3937   55.7973 F       1  ZINC001060733018   -0.1900
     28 H28       -12.2954   -4.2731   57.7738 H       1  ZINC001060733018    0.4100
     29 H29       -10.9022   -3.2974   55.7036 H       1  ZINC001060733018    0.0800
     30 H30       -12.3378   -2.2459   55.6611 H       1  ZINC001060733018    0.0800
     31 H31       -12.8212   -0.7018   57.5282 H       1  ZINC001060733018    0.0700
     32 H32       -12.8794   -2.0940   58.6357 H       1  ZINC001060733018    0.0700
     33 H33       -12.4409    0.0098   59.8729 H       1  ZINC001060733018    0.0700
     34 H34       -10.9939    0.2943   58.8762 H       1  ZINC001060733018    0.0600
     35 H35        -9.4185   -0.0396   61.1681 H       1  ZINC001060733018    0.4000
     36 H36        -9.9720   -1.2320   64.9783 H       1  ZINC001060733018    0.0700
     37 H37        -8.6016   -0.9232   63.8861 H       1  ZINC001060733018    0.0700
     38 H38        -8.0338   -0.1973   66.1647 H       1  ZINC001060733018    0.0700
     39 H39        -8.1571    1.2179   65.0921 H       1  ZINC001060733018    0.0700
     40 H40       -10.3139    0.2047   67.0023 H       1  ZINC001060733018    0.0700
     41 H41        -9.3320    1.6781   67.2039 H       1  ZINC001060733018    0.0700
     42 H42        -9.6425    3.7074   65.8760 H       1  ZINC001060733018    0.0900
     43 H43       -10.7918    3.7018   64.4335 H       1  ZINC001060733018    0.0900
     44 H44       -12.6868    2.9553   65.9462 H       1  ZINC001060733018    0.0900
     45 H45       -11.5377    2.9606   67.3888 H       1  ZINC001060733018    0.0900
     46 H46       -12.0093    1.6651   63.8438 H       1  ZINC001060733018    0.0700
     47 H47       -12.0265    0.1964   64.8529 H       1  ZINC001060733018    0.0800
     48 H48        -9.1024   -2.6526   60.1395 H       1  ZINC001060733018    0.0700
     49 H49        -9.0443   -1.2604   59.0319 H       1  ZINC001060733018    0.0700
     50 H50       -10.9297   -3.6488   58.7914 H       1  ZINC001060733018    0.0700
     51 H51        -9.4827   -3.3642   57.7948 H       1  ZINC001060733018    0.0700
     52 H52       -13.7569   -6.1433   57.4958 H       1  ZINC001060733018    0.1400
@<TRIPOS>BOND
     1     1     2    2
     2     2     3   am
     3     2    25    1
     4     3     4    1
     5     3    28    1
     6     4     5    1
     7     4    29    1
     8     4    30    1
     9     5     6    1
    10     5    24    1
    11     5     7    1
    12     7     8    1
    13     7    31    1
    14     7    32    1
    15     8     9    1
    16     8    33    1
    17     8    34    1
    18     9    10    1
    19     9    11    1
    20     9    23    1
    21    11    12   am
    22    11    35    1
    23    12    13    2
    24    12    14    1
    25    14    15    1
    26    14    22    1
    27    14    16    1
    28    16    17    1
    29    16    36    1
    30    16    37    1
    31    17    18    1
    32    17    38    1
    33    17    39    1
    34    18    19    1
    35    18    40    1
    36    18    41    1
    37    19    21    1
    38    19    20    1
    39    19    22    1
    40    20    21    1
    41    20    42    1
    42    20    43    1
    43    21    44    1
    44    21    45    1
    45    22    46    1
    46    22    47    1
    47    23    24    1
    48    23    48    1
    49    23    49    1
    50    24    50    1
    51    24    51    1
    52    25    26    1
    53    25    27    1
    54    25    52    1
@<TRIPOS>SUBSTRUCTURE
     1 ZINC001060733018        1 TEMP              0 ****  ****    0 ROOT


##########                                Name:    ZINC001345966764
##########                DOCK_Rotatable_Bonds:                  10
##########                         Heavy_Atoms:                  22
##########                    Molecular_Weight:             333.258
##########                DOCK_Rotatable_Bonds:                  10
##########                       Formal_Charge:           0.0099997
##########                     HBond_Acceptors:                  11
##########                        HBond_Donors:                   4
##########                         Heavy_Atoms:                  22
##########                          Grid_Score:          -27.199102
##########                     Grid_vdw_energy:          -23.491985
##########                      Grid_es_energy:           -3.707117
##########           Internal_energy_repulsive:            6.973892

@<TRIPOS>MOLECULE
ZINC001345966764
 38 38 1 0 0
SMALL
USER_CHARGES


@<TRIPOS>ATOM
      1 N1        -17.3630   -3.7202   59.8297 N.3     1  ZINC001345966764   -0.8400
      2 C2        -18.0404   -2.6809   60.6166 C.3     1  ZINC001345966764    0.0200
      3 C3        -16.9974   -1.7426   61.2272 C.3     1  ZINC001345966764    0.2800
      4 F4        -16.2576   -1.1391   60.2046 F       1  ZINC001345966764   -0.1900
      5 F5        -17.6423   -0.7559   61.9809 F       1  ZINC001345966764   -0.1800
      6 C6        -16.0585   -2.5432   62.1318 C.3     1  ZINC001345966764    0.0800
      7 N7        -14.7586   -1.8713   62.2030 N.am    1  ZINC001345966764   -0.7000
      8 C8        -14.5030   -1.0025   63.2013 C.2     1  ZINC001345966764    0.5100
      9 O9        -15.3500   -0.7756   64.0400 O.2     1  ZINC001345966764   -0.5100
     10 C10       -13.1762   -0.3184   63.2750 C.2     1  ZINC001345966764    0.5100
     11 O11       -12.8579    0.2812   64.2808 O.2     1  ZINC001345966764   -0.5100
     12 N12       -12.3336   -0.3673   62.2244 N.am    1  ZINC001345966764   -0.7000
     13 C13       -11.0323    0.3018   62.2972 C.3     1  ZINC001345966764    0.1200
     14 C14       -10.1047   -0.2682   61.2223 C.3     1  ZINC001345966764    0.0600
     15 H15        -9.2825    0.4204   61.0275 H       1  ZINC001345966764    0.0900
     16 C16        -9.5601   -1.6466   61.6576 C.3     1  ZINC001345966764   -0.1400
     17 C17        -9.5193   -2.4650   60.3477 C.3     1  ZINC001345966764   -0.1500
     18 C18       -10.0441   -1.4841   59.2759 C.3     1  ZINC001345966764    0.0300
     19 H19        -9.2126   -0.9827   58.7808 H       1  ZINC001345966764    0.1200
     20 C20       -10.9041   -2.2258   58.2506 C.3     1  ZINC001345966764    0.4600
     21 F21       -11.0782   -1.4218   57.1190 F       1  ZINC001345966764   -0.1700
     22 F22       -10.2685   -3.4167   57.8832 F       1  ZINC001345966764   -0.1700
     23 F23       -12.1519   -2.5173   58.8120 F       1  ZINC001345966764   -0.1700
     24 O24       -10.8421   -0.5270   60.0077 O.3     1  ZINC001345966764   -0.3500
     25 H25       -18.0309   -4.3517   59.4137 H       1  ZINC001345966764    0.3500
     26 H26       -16.7665   -3.3102   59.1268 H       1  ZINC001345966764    0.3600
     27 H27       -18.7068   -2.1113   59.9690 H       1  ZINC001345966764    0.1100
     28 H28       -18.6195   -3.1480   61.4133 H       1  ZINC001345966764    0.0700
     29 H29       -16.4876   -2.6113   63.1314 H       1  ZINC001345966764    0.1100
     30 H30       -15.9276   -3.5453   61.7235 H       1  ZINC001345966764    0.1100
     31 H31       -14.0819   -2.0516   61.5320 H       1  ZINC001345966764    0.4200
     32 H32       -12.5885   -0.8456   61.4200 H       1  ZINC001345966764    0.4200
     33 H33       -11.1641    1.3714   62.1335 H       1  ZINC001345966764    0.1000
     34 H34       -10.5932    0.1362   63.2811 H       1  ZINC001345966764    0.0900
     35 H35        -8.5589   -1.5467   62.0769 H       1  ZINC001345966764    0.0900
     36 H36       -10.2322   -2.1126   62.3783 H       1  ZINC001345966764    0.0900
     37 H37        -8.4980   -2.7697   60.1193 H       1  ZINC001345966764    0.1000
     38 H38       -10.1712   -3.3355   60.4207 H       1  ZINC001345966764    0.0900
@<TRIPOS>BOND
     1     1     2    1
     2     1    25    1
     3     1    26    1
     4     2     3    1
     5     2    27    1
     6     2    28    1
     7     3     4    1
     8     3     5    1
     9     3     6    1
    10     6     7    1
    11     6    29    1
    12     6    30    1
    13     7     8   am
    14     7    31    1
    15     8     9    2
    16     8    10    1
    17    10    11    2
    18    10    12   am
    19    12    13    1
    20    12    32    1
    21    13    14    1
    22    13    33    1
    23    13    34    1
    24    14    15    1
    25    14    24    1
    26    14    16    1
    27    16    17    1
    28    16    35    1
    29    16    36    1
    30    17    18    1
    31    17    37    1
    32    17    38    1
    33    18    19    1
    34    18    20    1
    35    18    24    1
    36    20    21    1
    37    20    22    1
    38    20    23    1
@<TRIPOS>SUBSTRUCTURE
     1 ZINC001345966764        1 TEMP              0 ****  ****    0 ROOT


##########                                Name:    ZINC000481838178
##########                DOCK_Rotatable_Bonds:                   6
##########                         Heavy_Atoms:                  29
##########                    Molecular_Weight:             408.524
##########                DOCK_Rotatable_Bonds:                   6
##########                       Formal_Charge:         -0.00999962
##########                     HBond_Acceptors:                   7
##########                        HBond_Donors:                   0
##########                         Heavy_Atoms:                  29
##########                          Grid_Score:          -27.186384
##########                     Grid_vdw_energy:          -26.152044
##########                      Grid_es_energy:           -1.034339
##########           Internal_energy_repulsive:            4.295387

@<TRIPOS>MOLECULE
ZINC000481838178
 53 57 1 0 0
SMALL
USER_CHARGES


@<TRIPOS>ATOM
      1 O1        -12.2963   -2.3927   60.4083 O.2     1  ZINC000481838178   -0.5200
      2 C2        -11.1970   -2.0667   60.8037 C.2     1  ZINC000481838178    0.5500
      3 C3         -9.9646   -2.6982   60.2091 C.3     1  ZINC000481838178   -0.1500
      4 S4        -10.4076   -3.5662   58.6838 S.3     1  ZINC000481838178    0.1000
      5 C5        -10.4516   -2.2090   57.5610 C.2     1  ZINC000481838178    0.1600
      6 N6         -9.5209   -1.2941   57.4076 N.2     1  ZINC000481838178   -0.2800
      7 N7         -9.8729   -0.4499   56.5051 N.2     1  ZINC000481838178   -0.2500
      8 C8        -11.0535   -0.7723   56.0232 C.2     1  ZINC000481838178    0.2700
      9 C9        -11.7973   -0.0548   54.9767 C.2     1  ZINC000481838178    0.0300
     10 C10       -12.1059    1.2728   54.9815 C.2     1  ZINC000481838178   -0.1300
     11 C11       -12.8187    1.5273   53.7939 C.2     1  ZINC000481838178   -0.2100
     12 C12       -12.9101    0.3584   53.1289 C.2     1  ZINC000481838178   -0.0100
     13 O13       -12.2873   -0.5939   53.8429 O.3     1  ZINC000481838178   -0.1700
     14 N14       -11.4590   -1.9148   56.6818 N.pl3   1  ZINC000481838178   -0.4100
     15 C15       -12.6554   -2.6210   56.4960 C.ar    1  ZINC000481838178    0.1000
     16 C16       -13.7621   -2.3336   57.2833 C.ar    1  ZINC000481838178   -0.0800
     17 C17       -14.9397   -3.0314   57.0980 C.ar    1  ZINC000481838178   -0.1100
     18 C18       -15.0170   -4.0151   56.1294 C.ar    1  ZINC000481838178   -0.1000
     19 C19       -13.9162   -4.3036   55.3436 C.ar    1  ZINC000481838178   -0.1100
     20 C20       -12.7377   -3.6054   55.5204 C.ar    1  ZINC000481838178   -0.0900
     21 N21       -11.0773   -1.1356   61.7708 N.am    1  ZINC000481838178   -0.6200
     22 C22       -12.1998   -0.4355   62.4505 C.3     1  ZINC000481838178    0.1000
     23 C23       -11.5969   -0.0412   63.8040 C.3     1  ZINC000481838178   -0.1100
     24 H24       -11.5093   -0.9074   64.4599 H       1  ZINC000481838178    0.0900
     25 C25       -12.2623    1.1174   64.5224 C.3     1  ZINC000481838178   -0.1100
     26 C26       -11.4281    1.4075   65.7813 C.3     1  ZINC000481838178   -0.1200
     27 C27        -9.9768    1.7237   65.4345 C.3     1  ZINC000481838178   -0.1200
     28 C28        -9.3458    0.6158   64.5742 C.3     1  ZINC000481838178   -0.1000
     29 C29       -10.1959    0.4548   63.3352 C.3     1  ZINC000481838178   -0.1100
     30 H30       -10.3081    1.4156   62.8326 H       1  ZINC000481838178    0.0900
     31 C31        -9.8027   -0.6372   62.3450 C.3     1  ZINC000481838178    0.1200
     32 H32        -9.2308   -1.9235   59.9862 H       1  ZINC000481838178    0.1300
     33 H33        -9.5403   -3.4069   60.9202 H       1  ZINC000481838178    0.1300
     34 H34       -11.8533    1.9905   55.7479 H       1  ZINC000481838178    0.1600
     35 H35       -13.2171    2.4793   53.4761 H       1  ZINC000481838178    0.1600
     36 H36       -13.3993    0.2125   52.1771 H       1  ZINC000481838178    0.2100
     37 H37       -13.7023   -1.5656   58.0403 H       1  ZINC000481838178    0.1300
     38 H38       -15.8009   -2.8085   57.7104 H       1  ZINC000481838178    0.1400
     39 H39       -15.9387   -4.5596   55.9865 H       1  ZINC000481838178    0.1300
     40 H40       -13.9795   -5.0728   54.5881 H       1  ZINC000481838178    0.1400
     41 H41       -11.8784   -3.8311   54.9063 H       1  ZINC000481838178    0.1300
     42 H42       -12.4976    0.4501   61.8891 H       1  ZINC000481838178    0.0800
     43 H43       -13.0464   -1.1083   62.5877 H       1  ZINC000481838178    0.0800
     44 H44       -12.2780    1.9954   63.8766 H       1  ZINC000481838178    0.0700
     45 H45       -13.2791    0.8447   64.8051 H       1  ZINC000481838178    0.0700
     46 H46       -11.8618    2.2583   66.3070 H       1  ZINC000481838178    0.0600
     47 H47       -11.4558    0.5356   66.4349 H       1  ZINC000481838178    0.0600
     48 H48        -9.9390    2.6651   64.8863 H       1  ZINC000481838178    0.0600
     49 H49        -9.4051    1.8273   66.3568 H       1  ZINC000481838178    0.0700
     50 H50        -8.3303    0.8959   64.2940 H       1  ZINC000481838178    0.0700
     51 H51        -9.3338   -0.3231   65.1278 H       1  ZINC000481838178    0.0700
     52 H52        -9.2696   -1.4370   62.8589 H       1  ZINC000481838178    0.0700
     53 H53        -9.1830   -0.2202   61.5513 H       1  ZINC000481838178    0.0700
@<TRIPOS>BOND
     1     1     2    2
     2     2     3    1
     3     2    21   am
     4     3     4    1
     5     3    32    1
     6     3    33    1
     7     4     5    1
     8     5    14    1
     9     5     6    2
    10     6     7    1
    11     7     8    2
    12     8     9    1
    13     8    14    1
    14     9    13    1
    15     9    10    2
    16    10    11    1
    17    10    34    1
    18    11    12    2
    19    11    35    1
    20    12    13    1
    21    12    36    1
    22    14    15    1
    23    15    20   ar
    24    15    16   ar
    25    16    17   ar
    26    16    37    1
    27    17    18   ar
    28    17    38    1
    29    18    19   ar
    30    18    39    1
    31    19    20   ar
    32    19    40    1
    33    20    41    1
    34    21    31    1
    35    21    22    1
    36    22    23    1
    37    22    42    1
    38    22    43    1
    39    23    24    1
    40    23    29    1
    41    23    25    1
    42    25    26    1
    43    25    44    1
    44    25    45    1
    45    26    27    1
    46    26    46    1
    47    26    47    1
    48    27    28    1
    49    27    48    1
    50    27    49    1
    51    28    29    1
    52    28    50    1
    53    28    51    1
    54    29    30    1
    55    29    31    1
    56    31    52    1
    57    31    53    1
@<TRIPOS>SUBSTRUCTURE
     1 ZINC000481838178        1 TEMP              0 ****  ****    0 ROOT


##########                                Name:    ZINC001135312623
##########                DOCK_Rotatable_Bonds:                   3
##########                         Heavy_Atoms:                  25
##########                    Molecular_Weight:             341.323
##########                DOCK_Rotatable_Bonds:                   3
##########                       Formal_Charge:        -1.78814e-07
##########                     HBond_Acceptors:                   8
##########                        HBond_Donors:                   2
##########                         Heavy_Atoms:                  25
##########                          Grid_Score:          -27.168503
##########                     Grid_vdw_energy:          -26.673918
##########                      Grid_es_energy:           -0.494586
##########           Internal_energy_repulsive:            5.654496

@<TRIPOS>MOLECULE
ZINC001135312623
 40 42 1 0 0
SMALL
USER_CHARGES


@<TRIPOS>ATOM
      1 C1        -12.4676   -3.5361   56.2635 C.3     1  ZINC001135312623   -0.1300
      2 C2        -13.4485   -3.4020   57.3996 C.ar    1  ZINC001135312623   -0.0600
      3 C3        -13.1497   -2.5942   58.4789 C.ar    1  ZINC001135312623   -0.1000
      4 C4        -14.0492   -2.4709   59.5224 C.ar    1  ZINC001135312623   -0.0300
      5 C5        -13.7198   -1.5885   60.6987 C.3     1  ZINC001135312623   -0.1300
      6 C6        -15.2502   -3.1552   59.4882 C.ar    1  ZINC001135312623   -0.0200
      7 N7        -16.2098   -3.0204   60.6070 N.pl3   1  ZINC001135312623    0.0200
      8 O8        -16.8824   -3.9759   60.9509 O.2     1  ZINC001135312623   -0.1500
      9 O9        -16.3270   -1.9541   61.1838 O.2     1  ZINC001135312623   -0.1500
     10 C10       -15.5555   -3.9641   58.4111 C.ar    1  ZINC001135312623   -0.0700
     11 C11       -14.6567   -4.0864   57.3596 C.ar    1  ZINC001135312623    0.1500
     12 N12       -14.9627   -4.9045   56.2675 N.am    1  ZINC001135312623   -0.6600
     13 C13       -15.5109   -4.3703   55.1580 C.2     1  ZINC001135312623    0.5600
     14 O14       -15.7393   -3.1771   55.1068 O.2     1  ZINC001135312623   -0.5000
     15 C15       -15.8338   -5.2335   54.0057 C.ar    1  ZINC001135312623   -0.1600
     16 C16       -15.6414   -6.6150   54.0905 C.ar    1  ZINC001135312623   -0.0400
     17 C17       -15.9425   -7.4203   53.0140 C.ar    1  ZINC001135312623   -0.1500
     18 C18       -16.4378   -6.8576   51.8447 C.ar    1  ZINC001135312623    0.2000
     19 N19       -16.7461   -7.6543   50.7418 N.am    1  ZINC001135312623   -0.6700
     20 C20       -16.9186   -7.0829   49.5330 C.2     1  ZINC001135312623    0.6600
     21 O21       -17.2112   -7.7753   48.5783 O.2     1  ZINC001135312623   -0.4900
     22 O22       -16.7709   -5.7558   49.3709 O.3     1  ZINC001135312623   -0.3400
     23 C23       -17.1734   -4.8998   50.4753 C.3     1  ZINC001135312623    0.1100
     24 C24       -16.6321   -5.4798   51.7582 C.ar    1  ZINC001135312623   -0.1800
     25 C25       -16.3384   -4.6708   52.8285 C.ar    1  ZINC001135312623    0.0000
     26 H26       -12.6690   -2.7678   55.5170 H       1  ZINC001135312623    0.0900
     27 H27       -11.4529   -3.4165   56.6433 H       1  ZINC001135312623    0.0800
     28 H28       -12.5713   -4.5210   55.8082 H       1  ZINC001135312623    0.0700
     29 H29       -12.2126   -2.0583   58.5086 H       1  ZINC001135312623    0.1500
     30 H30       -14.0054   -0.5610   60.4734 H       1  ZINC001135312623    0.0900
     31 H31       -14.2667   -1.9336   61.5761 H       1  ZINC001135312623    0.0800
     32 H32       -12.6490   -1.6327   60.8974 H       1  ZINC001135312623    0.0800
     33 H33       -16.4938   -4.4984   58.3851 H       1  ZINC001135312623    0.1700
     34 H34       -14.7806   -5.8563   56.3083 H       1  ZINC001135312623    0.4200
     35 H35       -15.2563   -7.0517   55.0001 H       1  ZINC001135312623    0.1400
     36 H36       -15.7933   -8.4879   53.0791 H       1  ZINC001135312623    0.1500
     37 H37       -16.8355   -8.6147   50.8442 H       1  ZINC001135312623    0.4300
     38 H38       -16.7695   -3.8982   50.3277 H       1  ZINC001135312623    0.1300
     39 H39       -18.2614   -4.8543   50.5250 H       1  ZINC001135312623    0.1000
     40 H40       -16.4929   -3.6040   52.7602 H       1  ZINC001135312623    0.1500
@<TRIPOS>BOND
     1     1     2    1
     2     1    26    1
     3     1    27    1
     4     1    28    1
     5     2    11   ar
     6     2     3   ar
     7     3     4   ar
     8     3    29    1
     9     4     5    1
    10     4     6   ar
    11     5    30    1
    12     5    31    1
    13     5    32    1
    14     6     7    1
    15     6    10   ar
    16     7     8    2
    17     7     9    2
    18    10    11   ar
    19    10    33    1
    20    11    12    1
    21    12    13   am
    22    12    34    1
    23    13    14    2
    24    13    15    1
    25    15    25   ar
    26    15    16   ar
    27    16    17   ar
    28    16    35    1
    29    17    18   ar
    30    17    36    1
    31    18    24   ar
    32    18    19    1
    33    19    20   am
    34    19    37    1
    35    20    21    2
    36    20    22    1
    37    22    23    1
    38    23    24    1
    39    23    38    1
    40    23    39    1
    41    24    25   ar
    42    25    40    1
@<TRIPOS>SUBSTRUCTURE
     1 ZINC001135312623        1 TEMP              0 ****  ****    0 ROOT


##########                                Name:    ZINC000680410869
##########                DOCK_Rotatable_Bonds:                   6
##########                         Heavy_Atoms:                  24
##########                    Molecular_Weight:             335.354
##########                DOCK_Rotatable_Bonds:                   6
##########                       Formal_Charge:        -1.04308e-07
##########                     HBond_Acceptors:                   7
##########                        HBond_Donors:                   0
##########                         Heavy_Atoms:                  24
##########                          Grid_Score:          -27.149141
##########                     Grid_vdw_energy:          -25.010113
##########                      Grid_es_energy:           -2.139028
##########           Internal_energy_repulsive:            9.615580

@<TRIPOS>MOLECULE
ZINC000680410869
 43 45 1 0 0
SMALL
USER_CHARGES


@<TRIPOS>ATOM
      1 O1         -3.5818    1.3120   50.6302 O.2     1  ZINC000680410869   -0.5200
      2 C2         -2.7710    2.1139   50.2090 C.2     1  ZINC000680410869    0.6100
      3 C3         -1.8391    1.7251   49.1309 C.2     1  ZINC000680410869    0.0100
      4 N4         -1.8997    2.0998   47.8686 N.2     1  ZINC000680410869   -0.2500
      5 N5         -0.9311    1.5765   47.2065 N.pl3   1  ZINC000680410869   -0.3500
      6 C6         -0.6889    1.7784   45.7758 C.3     1  ZINC000680410869    0.5000
      7 F7          0.4859    2.5179   45.6016 F       1  ZINC000680410869   -0.1600
      8 F8         -0.5561    0.5366   45.1455 F       1  ZINC000680410869   -0.1700
      9 C9         -0.1682    0.8141   48.0189 C.2     1  ZINC000680410869    0.0100
     10 C10        -0.7081    0.8843   49.2582 C.2     1  ZINC000680410869   -0.1700
     11 N11        -2.7262    3.3595   50.7218 N.am    1  ZINC000680410869   -0.6000
     12 C12        -1.7577    4.3493   50.2240 C.3     1  ZINC000680410869    0.0800
     13 C13        -1.0247    4.9554   51.4261 C.3     1  ZINC000680410869    0.0500
     14 O14        -1.9850    5.4279   52.3739 O.3     1  ZINC000680410869   -0.3700
     15 C15        -2.8195    4.4044   52.9213 C.3     1  ZINC000680410869    0.0800
     16 H16        -2.1990    3.6418   53.3922 H       1  ZINC000680410869    0.0600
     17 C17        -3.7589    5.0141   53.9638 C.3     1  ZINC000680410869   -0.1000
     18 C18        -2.9363    5.5755   55.1253 C.3     1  ZINC000680410869   -0.0800
     19 C19        -2.3780    4.4381   55.9413 C.ar    1  ZINC000680410869   -0.0800
     20 C20        -1.0245    4.1598   55.9035 C.ar    1  ZINC000680410869   -0.1200
     21 C21        -0.5124    3.1165   56.6520 C.ar    1  ZINC000680410869   -0.1200
     22 C22        -1.3536    2.3520   57.4387 C.ar    1  ZINC000680410869   -0.1300
     23 C23        -2.7070    2.6310   57.4771 C.ar    1  ZINC000680410869   -0.1200
     24 C24        -3.2185    3.6769   56.7319 C.ar    1  ZINC000680410869   -0.1200
     25 C25        -3.6484    3.7717   51.7918 C.3     1  ZINC000680410869    0.0600
     26 H26        -1.5274    2.3202   45.3383 H       1  ZINC000680410869    0.1700
     27 H27         0.7113    0.2558   47.7339 H       1  ZINC000680410869    0.1900
     28 H28        -0.3537    0.3966   50.1542 H       1  ZINC000680410869    0.1700
     29 H29        -1.0403    3.8613   49.5644 H       1  ZINC000680410869    0.1000
     30 H30        -2.2824    5.1346   49.6798 H       1  ZINC000680410869    0.0800
     31 H31        -0.3977    4.1949   51.8914 H       1  ZINC000680410869    0.0600
     32 H32        -0.4032    5.7865   51.0924 H       1  ZINC000680410869    0.1100
     33 H33        -4.3370    5.8171   53.5065 H       1  ZINC000680410869    0.0800
     34 H34        -4.4361    4.2455   54.3363 H       1  ZINC000680410869    0.0800
     35 H35        -2.1168    6.1774   54.7326 H       1  ZINC000680410869    0.0700
     36 H36        -3.5735    6.1962   55.7552 H       1  ZINC000680410869    0.0800
     37 H37        -0.3672    4.7570   55.2890 H       1  ZINC000680410869    0.1200
     38 H38         0.5450    2.8985   56.6221 H       1  ZINC000680410869    0.1200
     39 H39        -0.9537    1.5365   58.0229 H       1  ZINC000680410869    0.1200
     40 H40        -3.3644    2.0335   58.0914 H       1  ZINC000680410869    0.1200
     41 H41        -4.2758    3.8950   56.7619 H       1  ZINC000680410869    0.1200
     42 H42        -4.3624    4.5004   51.4081 H       1  ZINC000680410869    0.0800
     43 H43        -4.1810    2.8998   52.1715 H       1  ZINC000680410869    0.1300
@<TRIPOS>BOND
     1     1     2    2
     2     2     3    1
     3     2    11   am
     4     3    10    1
     5     3     4    2
     6     4     5    1
     7     5     6    1
     8     5     9    1
     9     6     7    1
    10     6     8    1
    11     6    26    1
    12     9    10    2
    13     9    27    1
    14    10    28    1
    15    11    25    1
    16    11    12    1
    17    12    13    1
    18    12    29    1
    19    12    30    1
    20    13    14    1
    21    13    31    1
    22    13    32    1
    23    14    15    1
    24    15    16    1
    25    15    17    1
    26    15    25    1
    27    17    18    1
    28    17    33    1
    29    17    34    1
    30    18    19    1
    31    18    35    1
    32    18    36    1
    33    19    24   ar
    34    19    20   ar
    35    20    21   ar
    36    20    37    1
    37    21    22   ar
    38    21    38    1
    39    22    23   ar
    40    22    39    1
    41    23    24   ar
    42    23    40    1
    43    24    41    1
    44    25    42    1
    45    25    43    1
@<TRIPOS>SUBSTRUCTURE
     1 ZINC000680410869        1 TEMP              0 ****  ****    0 ROOT


##########                                Name:    ZINC000477669194
##########                DOCK_Rotatable_Bonds:                   6
##########                         Heavy_Atoms:                  26
##########                    Molecular_Weight:             387.483
##########                DOCK_Rotatable_Bonds:                   6
##########                       Formal_Charge:         4.47035e-07
##########                     HBond_Acceptors:                   8
##########                        HBond_Donors:                   2
##########                         Heavy_Atoms:                  26
##########                          Grid_Score:          -27.148703
##########                     Grid_vdw_energy:          -25.986742
##########                      Grid_es_energy:           -1.161961
##########           Internal_energy_repulsive:          182.660385

@<TRIPOS>MOLECULE
ZINC000477669194
 43 45 1 0 0
SMALL
USER_CHARGES


@<TRIPOS>ATOM
      1 C1        -16.2010   -0.6963   53.9532 C.3     1  ZINC000477669194   -0.0800
      2 C2        -17.0393   -1.7782   53.3224 C.2     1  ZINC000477669194    0.0500
      3 N3        -16.8900   -3.0400   53.5337 N.2     1  ZINC000477669194   -0.4900
      4 C4        -17.7140   -3.8606   52.8982 C.2     1  ZINC000477669194    0.1200
      5 C5        -17.6576   -5.3352   53.0465 C.ar    1  ZINC000477669194   -0.0600
      6 C6        -18.5536   -6.1428   52.3510 C.ar    1  ZINC000477669194   -0.0800
      7 C7        -18.4973   -7.5153   52.4924 C.ar    1  ZINC000477669194   -0.1400
      8 C8        -17.5534   -8.0926   53.3229 C.ar    1  ZINC000477669194   -0.0900
      9 C9        -16.6588   -7.3013   54.0187 C.ar    1  ZINC000477669194   -0.1300
     10 C10       -16.6996   -5.9219   53.8817 C.ar    1  ZINC000477669194    0.1800
     11 N11       -15.7956   -5.1201   54.5841 N.am    1  ZINC000477669194   -0.6500
     12 C12       -14.8815   -5.6873   55.3959 C.2     1  ZINC000477669194    0.5600
     13 O13       -14.8432   -6.8967   55.5173 O.2     1  ZINC000477669194   -0.5200
     14 C14       -13.9275   -4.8412   56.1371 C.ar    1  ZINC000477669194   -0.1500
     15 C15       -13.7932   -3.4878   55.8131 C.ar    1  ZINC000477669194   -0.0600
     16 C16       -12.9026   -2.7009   56.5068 C.ar    1  ZINC000477669194   -0.1400
     17 C17       -12.1358   -3.2512   57.5303 C.ar    1  ZINC000477669194    0.1700
     18 N18       -11.2367   -2.4533   58.2293 N.am    1  ZINC000477669194   -1.0600
     19 S19       -10.2688   -3.1222   59.3947 S.o2    1  ZINC000477669194    2.6100
     20 C20        -9.2854   -1.7317   60.0193 C.3     1  ZINC000477669194   -0.6700
     21 O21       -11.1784   -3.5756   60.3878 O.2     1  ZINC000477669194   -0.9400
     22 O22        -9.4449   -4.0361   58.6838 O.2     1  ZINC000477669194   -0.9500
     23 C23       -12.2675   -4.5984   57.8555 C.ar    1  ZINC000477669194   -0.1600
     24 C24       -13.1599   -5.3894   57.1689 C.ar    1  ZINC000477669194   -0.0300
     25 C25       -18.6084   -3.2366   52.1051 C.2     1  ZINC000477669194   -0.2600
     26 S26       -18.3263   -1.5022   52.2321 S.3     1  ZINC000477669194    0.1500
     27 H27       -16.5437    0.2782   53.6055 H       1  ZINC000477669194    0.0800
     28 H28       -16.2958   -0.7492   55.0378 H       1  ZINC000477669194    0.0900
     29 H29       -15.1569   -0.8356   53.6726 H       1  ZINC000477669194    0.0900
     30 H30       -19.2924   -5.6962   51.7020 H       1  ZINC000477669194    0.1300
     31 H31       -19.1932   -8.1405   51.9528 H       1  ZINC000477669194    0.1300
     32 H32       -17.5155   -9.1668   53.4283 H       1  ZINC000477669194    0.1300
     33 H33       -15.9247   -7.7578   54.6660 H       1  ZINC000477669194    0.1500
     34 H34       -15.8262   -4.1555   54.4873 H       1  ZINC000477669194    0.4200
     35 H35       -14.3875   -3.0604   55.0191 H       1  ZINC000477669194    0.1300
     36 H36       -12.7980   -1.6555   56.2568 H       1  ZINC000477669194    0.1400
     37 H37       -11.1765   -1.5051   58.0343 H       1  ZINC000477669194    0.4300
     38 H38        -9.9425   -1.0131   60.5092 H       1  ZINC000477669194    0.1300
     39 H39        -8.5505   -2.0991   60.7356 H       1  ZINC000477669194    0.1400
     40 H40        -8.7724   -1.2473   59.1885 H       1  ZINC000477669194    0.1300
     41 H41       -11.6715   -5.0222   58.6503 H       1  ZINC000477669194    0.1700
     42 H42       -13.2618   -6.4344   57.4220 H       1  ZINC000477669194    0.1500
     43 H43       -19.3659   -3.7149   51.5021 H       1  ZINC000477669194    0.1800
@<TRIPOS>BOND
     1     1     2    1
     2     1    27    1
     3     1    28    1
     4     1    29    1
     5     2    26    1
     6     2     3    2
     7     3     4    1
     8     4     5    1
     9     4    25    2
    10     5    10   ar
    11     5     6   ar
    12     6     7   ar
    13     6    30    1
    14     7     8   ar
    15     7    31    1
    16     8     9   ar
    17     8    32    1
    18     9    10   ar
    19     9    33    1
    20    10    11    1
    21    11    12   am
    22    11    34    1
    23    12    13    2
    24    12    14    1
    25    14    24   ar
    26    14    15   ar
    27    15    16   ar
    28    15    35    1
    29    16    17   ar
    30    16    36    1
    31    17    18    1
    32    17    23   ar
    33    18    19   am
    34    18    37    1
    35    19    20    1
    36    19    21    2
    37    19    22    2
    38    20    38    1
    39    20    39    1
    40    20    40    1
    41    23    24   ar
    42    23    41    1
    43    24    42    1
    44    25    26    1
    45    25    43    1
@<TRIPOS>SUBSTRUCTURE
     1 ZINC000477669194        1 TEMP              0 ****  ****    0 ROOT


##########                                Name:    ZINC000579444893
##########                DOCK_Rotatable_Bonds:                   8
##########                         Heavy_Atoms:                  26
##########                    Molecular_Weight:             365.494
##########                DOCK_Rotatable_Bonds:                   8
##########                       Formal_Charge:         -0.00999993
##########                     HBond_Acceptors:                   7
##########                        HBond_Donors:                   1
##########                         Heavy_Atoms:                  26
##########                          Grid_Score:          -27.146015
##########                     Grid_vdw_energy:          -25.871645
##########                      Grid_es_energy:           -1.274369
##########           Internal_energy_repulsive:           29.012804

@<TRIPOS>MOLECULE
ZINC000579444893
 58 60 1 0 0
SMALL
USER_CHARGES


@<TRIPOS>ATOM
      1 C1         -9.6078    2.3822   57.5901 C.3     1  ZINC000579444893   -0.1600
      2 C2         -9.9709    0.9496   57.1942 C.3     1  ZINC000579444893    0.1700
      3 H3         -9.1097    0.4724   56.7266 H       1  ZINC000579444893    0.0900
      4 N4        -10.3575    0.1959   58.3895 N.am    1  ZINC000579444893   -0.7400
      5 C5         -9.8557   -1.0371   58.6003 C.2     1  ZINC000579444893    0.7100
      6 O6         -9.0833   -1.5245   57.7976 O.2     1  ZINC000579444893   -0.5900
      7 N7        -10.2101   -1.7298   59.7007 N.am    1  ZINC000579444893   -0.6300
      8 C8         -9.6660   -3.0707   59.9289 C.3     1  ZINC000579444893    0.0800
      9 C9        -11.1394   -1.1419   60.6687 C.3     1  ZINC000579444893    0.1100
     10 C10       -10.3697   -0.2278   61.6243 C.3     1  ZINC000579444893    0.0600
     11 H11        -9.8205    0.5234   61.0568 H       1  ZINC000579444893    0.1000
     12 C12        -9.3899   -1.0632   62.4749 C.3     1  ZINC000579444893   -0.1600
     13 C13        -9.4710   -0.3854   63.8681 C.3     1  ZINC000579444893    0.0800
     14 H14        -8.8276    0.4933   63.9128 H       1  ZINC000579444893    0.1000
     15 F15        -9.1499   -1.2907   64.8852 F       1  ZINC000579444893   -0.2000
     16 C16       -10.9654    0.0171   63.9337 C.3     1  ZINC000579444893    0.0200
     17 N17       -11.3071    0.4309   62.5525 N.3     1  ZINC000579444893   -0.5000
     18 C18       -12.6979    0.0863   62.2285 C.3     1  ZINC000579444893    0.1000
     19 C19       -13.6256    0.7888   63.1859 C.2     1  ZINC000579444893    0.0800
     20 C20       -13.4042    1.9850   63.7783 C.2     1  ZINC000579444893   -0.2500
     21 C21       -14.5073    2.2751   64.5880 C.2     1  ZINC000579444893    0.0400
     22 N22       -15.3603    1.2884   64.4852 N.2     1  ZINC000579444893   -0.2900
     23 N23       -14.8286    0.3404   63.6016 N.pl3   1  ZINC000579444893   -0.3700
     24 C24       -15.4625   -0.9197   63.2057 C.3     1  ZINC000579444893    0.0900
     25 C25       -11.1392    0.9738   56.2065 C.3     1  ZINC000579444893   -0.1000
     26 C26       -10.7525    1.7592   54.9288 C.3     1  ZINC000579444893   -0.1200
     27 C27       -11.7258    1.1870   53.8684 C.3     1  ZINC000579444893   -0.1300
     28 C28       -11.8185   -0.3142   54.2109 C.3     1  ZINC000579444893   -0.1300
     29 C29       -11.4455   -0.4498   55.6975 C.3     1  ZINC000579444893   -0.1200
     30 H30        -8.8384    2.3620   58.3618 H       1  ZINC000579444893    0.0600
     31 H31        -9.2327    2.9163   56.7170 H       1  ZINC000579444893    0.0700
     32 H32       -10.4935    2.8889   57.9731 H       1  ZINC000579444893    0.0500
     33 H33       -10.9746    0.5842   59.0292 H       1  ZINC000579444893    0.4000
     34 H34        -8.6937   -2.9905   60.4149 H       1  ZINC000579444893    0.0600
     35 H35       -10.3459   -3.6350   60.5673 H       1  ZINC000579444893    0.0800
     36 H36        -9.5536   -3.5845   58.9741 H       1  ZINC000579444893    0.0700
     37 H37       -11.8953   -0.5612   60.1403 H       1  ZINC000579444893    0.0900
     38 H38       -11.6231   -1.9365   61.2368 H       1  ZINC000579444893    0.0900
     39 H39        -9.7173   -2.1013   62.5317 H       1  ZINC000579444893    0.1100
     40 H40        -8.3788   -0.9984   62.0731 H       1  ZINC000579444893    0.0800
     41 H41       -11.5747   -0.8340   64.2379 H       1  ZINC000579444893    0.0600
     42 H42       -11.1042    0.8499   64.6230 H       1  ZINC000579444893    0.0900
     43 H43       -12.9220    0.4002   61.2090 H       1  ZINC000579444893    0.1100
     44 H44       -12.8347   -0.9917   62.3150 H       1  ZINC000579444893    0.0500
     45 H45       -12.5300    2.6060   63.6493 H       1  ZINC000579444893    0.1500
     46 H46       -14.6328    3.1604   65.1937 H       1  ZINC000579444893    0.1800
     47 H47       -16.0323   -0.7675   62.2891 H       1  ZINC000579444893    0.0800
     48 H48       -14.6950   -1.6747   63.0354 H       1  ZINC000579444893    0.0800
     49 H49       -16.1318   -1.2544   63.9983 H       1  ZINC000579444893    0.0900
     50 H50       -12.0225    1.4106   56.6726 H       1  ZINC000579444893    0.0800
     51 H51       -10.9170    2.8277   55.0674 H       1  ZINC000579444893    0.0700
     52 H52        -9.7177    1.5594   54.6509 H       1  ZINC000579444893    0.0700
     53 H53       -12.7044    1.6591   53.9546 H       1  ZINC000579444893    0.0700
     54 H54       -11.3216    1.3253   52.8656 H       1  ZINC000579444893    0.0700
     55 H55       -12.8347   -0.6727   54.0466 H       1  ZINC000579444893    0.0600
     56 H56       -11.1184   -0.8812   53.5972 H       1  ZINC000579444893    0.0600
     57 H57       -10.5645   -1.0824   55.8053 H       1  ZINC000579444893    0.0600
     58 H58       -12.2807   -0.8740   56.2548 H       1  ZINC000579444893    0.0600
@<TRIPOS>BOND
     1     1     2    1
     2     1    30    1
     3     1    31    1
     4     1    32    1
     5     2     3    1
     6     2     4    1
     7     2    25    1
     8     4     5   am
     9     4    33    1
    10     5     6    2
    11     5     7   am
    12     7     8    1
    13     7     9    1
    14     8    34    1
    15     8    35    1
    16     8    36    1
    17     9    10    1
    18     9    37    1
    19     9    38    1
    20    10    11    1
    21    10    17    1
    22    10    12    1
    23    12    13    1
    24    12    39    1
    25    12    40    1
    26    13    14    1
    27    13    15    1
    28    13    16    1
    29    16    17    1
    30    16    41    1
    31    16    42    1
    32    17    18    1
    33    18    19    1
    34    18    43    1
    35    18    44    1
    36    19    23    1
    37    19    20    2
    38    20    21    1
    39    20    45    1
    40    21    22    2
    41    21    46    1
    42    22    23    1
    43    23    24    1
    44    24    47    1
    45    24    48    1
    46    24    49    1
    47    25    29    1
    48    25    26    1
    49    25    50    1
    50    26    27    1
    51    26    51    1
    52    26    52    1
    53    27    28    1
    54    27    53    1
    55    27    54    1
    56    28    29    1
    57    28    55    1
    58    28    56    1
    59    29    57    1
    60    29    58    1
@<TRIPOS>SUBSTRUCTURE
     1 ZINC000579444893        1 TEMP              0 ****  ****    0 ROOT


##########                                Name:    ZINC000486710336
##########                DOCK_Rotatable_Bonds:                   6
##########                         Heavy_Atoms:                  31
##########                    Molecular_Weight:             420.555
##########                DOCK_Rotatable_Bonds:                   6
##########                       Formal_Charge:         1.49012e-07
##########                     HBond_Acceptors:                   6
##########                        HBond_Donors:                   1
##########                         Heavy_Atoms:                  31
##########                          Grid_Score:          -27.143894
##########                     Grid_vdw_energy:          -26.570522
##########                      Grid_es_energy:           -0.573372
##########           Internal_energy_repulsive:           52.406902

@<TRIPOS>MOLECULE
ZINC000486710336
 63 67 1 0 0
SMALL
USER_CHARGES


@<TRIPOS>ATOM
      1 C1        -13.6424   -3.6276   57.1226 C.3     1  ZINC000486710336    0.1000
      2 N2        -12.8690   -2.6975   57.9489 N.pl3   1  ZINC000486710336   -0.3900
      3 N3        -12.4281   -2.9275   59.2584 N.2     1  ZINC000486710336   -0.2800
      4 C4        -11.7710   -1.8716   59.6650 C.2     1  ZINC000486710336    0.1000
      5 C5        -11.1275   -1.7010   61.0171 C.3     1  ZINC000486710336   -0.0100
      6 C6         -9.6283   -2.0850   60.9561 C.3     1  ZINC000486710336   -0.1200
      7 C7         -9.0273   -1.3073   62.1533 C.3     1  ZINC000486710336   -0.1200
      8 C8         -9.7854    0.0362   62.1505 C.3     1  ZINC000486710336   -0.1200
      9 C9        -11.1208   -0.2142   61.4281 C.3     1  ZINC000486710336   -0.1100
     10 C10       -11.7670   -0.9290   58.6341 C.2     1  ZINC000486710336   -0.2600
     11 C11       -12.4465   -1.4602   57.5798 C.2     1  ZINC000486710336    0.3000
     12 N12       -12.6731   -0.8449   56.3519 N.am    1  ZINC000486710336   -0.6200
     13 C13       -11.9471   -1.2031   55.2744 C.2     1  ZINC000486710336    0.5100
     14 O14       -11.0944   -2.0613   55.3750 O.2     1  ZINC000486710336   -0.4800
     15 C15       -12.1913   -0.5444   53.9570 C.2     1  ZINC000486710336    0.5300
     16 O16       -13.2986   -0.5719   53.4608 O.2     1  ZINC000486710336   -0.5100
     17 N17       -11.1823    0.0808   53.3187 N.am    1  ZINC000486710336   -0.5800
     18 C18        -9.7916    0.1908   53.7947 C.3     1  ZINC000486710336    0.1000
     19 C19        -9.0164    1.0228   52.7490 C.3     1  ZINC000486710336   -0.0600
     20 H20        -8.5023    0.3722   52.0415 H       1  ZINC000486710336    0.1000
     21 C21        -8.0408    1.9531   53.4228 C.ar    1  ZINC000486710336   -0.0700
     22 C22        -7.5578    3.0569   52.7452 C.ar    1  ZINC000486710336   -0.1100
     23 C23        -6.6630    3.9102   53.3632 C.ar    1  ZINC000486710336   -0.1200
     24 C24        -6.2515    3.6600   54.6589 C.ar    1  ZINC000486710336   -0.1200
     25 C25        -6.7351    2.5566   55.3368 C.ar    1  ZINC000486710336   -0.1200
     26 C26        -7.6333    1.7057   54.7203 C.ar    1  ZINC000486710336   -0.1100
     27 C27       -10.1513    1.8238   52.0401 C.3     1  ZINC000486710336   -0.0800
     28 H28        -9.8741    2.1511   51.0380 H       1  ZINC000486710336    0.1100
     29 C29       -10.5002    2.9950   52.9608 C.3     1  ZINC000486710336   -0.1100
     30 C30       -11.8520    3.5950   52.5816 C.3     1  ZINC000486710336   -0.1200
     31 C31       -12.9325    2.5235   52.7627 C.3     1  ZINC000486710336   -0.1100
     32 C32       -12.6439    1.3776   51.7928 C.3     1  ZINC000486710336   -0.1400
     33 C33       -11.2728    0.7655   52.0265 C.3     1  ZINC000486710336    0.1400
     34 H34       -11.0807    0.0340   51.2414 H       1  ZINC000486710336    0.0800
     35 H35       -12.9614   -4.2638   56.5573 H       1  ZINC000486710336    0.0800
     36 H36       -14.2706   -4.2466   57.7632 H       1  ZINC000486710336    0.1000
     37 H37       -14.2706   -3.0645   56.4325 H       1  ZINC000486710336    0.0800
     38 H38       -11.6471   -2.3010   61.7642 H       1  ZINC000486710336    0.0900
     39 H39        -9.4989   -3.1591   61.0893 H       1  ZINC000486710336    0.0700
     40 H40        -9.1826   -1.7545   60.0179 H       1  ZINC000486710336    0.0800
     41 H41        -9.2056   -1.8440   63.0851 H       1  ZINC000486710336    0.0700
     42 H42        -7.9600   -1.1434   62.0046 H       1  ZINC000486710336    0.0700
     43 H43        -9.9701    0.3628   63.1740 H       1  ZINC000486710336    0.0600
     44 H44        -9.2074    0.7900   61.6161 H       1  ZINC000486710336    0.0600
     45 H45       -11.1907    0.4183   60.5431 H       1  ZINC000486710336    0.0700
     46 H46       -11.9535   -0.0089   62.1008 H       1  ZINC000486710336    0.0700
     47 H47       -11.3038    0.0462   58.6659 H       1  ZINC000486710336    0.1700
     48 H48       -13.3536   -0.1583   56.2717 H       1  ZINC000486710336    0.4200
     49 H49        -9.7688    0.6952   54.7608 H       1  ZINC000486710336    0.0900
     50 H50        -9.3493   -0.8016   53.8811 H       1  ZINC000486710336    0.0800
     51 H51        -7.8794    3.2524   51.7329 H       1  ZINC000486710336    0.1200
     52 H52        -6.2852    4.7723   52.8335 H       1  ZINC000486710336    0.1200
     53 H53        -5.5517    4.3263   55.1415 H       1  ZINC000486710336    0.1200
     54 H54        -6.4132    2.3609   56.3490 H       1  ZINC000486710336    0.1200
     55 H55        -8.0111    0.8436   55.2499 H       1  ZINC000486710336    0.1200
     56 H56       -10.5404    2.6420   53.9913 H       1  ZINC000486710336    0.0700
     57 H57        -9.7301    3.7615   52.8743 H       1  ZINC000486710336    0.0700
     58 H58       -12.0688    4.4457   53.2278 H       1  ZINC000486710336    0.0600
     59 H59       -11.8293    3.9194   51.5412 H       1  ZINC000486710336    0.0600
     60 H60       -12.9123    2.1512   53.7869 H       1  ZINC000486710336    0.0500
     61 H61       -13.9120    2.9497   52.5459 H       1  ZINC000486710336    0.0600
     62 H62       -13.4030    0.6053   51.9166 H       1  ZINC000486710336    0.1000
     63 H63       -12.6839    1.7557   50.7713 H       1  ZINC000486710336    0.0700
@<TRIPOS>BOND
     1     1     2    1
     2     1    35    1
     3     1    36    1
     4     1    37    1
     5     2    11    1
     6     2     3    1
     7     3     4    2
     8     4     5    1
     9     4    10    1
    10     5     9    1
    11     5     6    1
    12     5    38    1
    13     6     7    1
    14     6    39    1
    15     6    40    1
    16     7     8    1
    17     7    41    1
    18     7    42    1
    19     8     9    1
    20     8    43    1
    21     8    44    1
    22     9    45    1
    23     9    46    1
    24    10    11    2
    25    10    47    1
    26    11    12    1
    27    12    13   am
    28    12    48    1
    29    13    14    2
    30    13    15    1
    31    15    16    2
    32    15    17   am
    33    17    33    1
    34    17    18    1
    35    18    19    1
    36    18    49    1
    37    18    50    1
    38    19    20    1
    39    19    21    1
    40    19    27    1
    41    21    26   ar
    42    21    22   ar
    43    22    23   ar
    44    22    51    1
    45    23    24   ar
    46    23    52    1
    47    24    25   ar
    48    24    53    1
    49    25    26   ar
    50    25    54    1
    51    26    55    1
    52    27    28    1
    53    27    33    1
    54    27    29    1
    55    29    30    1
    56    29    56    1
    57    29    57    1
    58    30    31    1
    59    30    58    1
    60    30    59    1
    61    31    32    1
    62    31    60    1
    63    31    61    1
    64    32    33    1
    65    32    62    1
    66    32    63    1
    67    33    34    1
@<TRIPOS>SUBSTRUCTURE
     1 ZINC000486710336        1 TEMP              0 ****  ****    0 ROOT


##########                                Name:    ZINC001345266033
##########                DOCK_Rotatable_Bonds:                   4
##########                         Heavy_Atoms:                  29
##########                    Molecular_Weight:               389.5
##########                DOCK_Rotatable_Bonds:                   4
##########                       Formal_Charge:          -0.0100001
##########                     HBond_Acceptors:                   6
##########                        HBond_Donors:                   0
##########                         Heavy_Atoms:                  29
##########                          Grid_Score:          -27.131390
##########                     Grid_vdw_energy:          -26.021572
##########                      Grid_es_energy:           -1.109817
##########           Internal_energy_repulsive:            8.177947

@<TRIPOS>MOLECULE
ZINC001345266033
 56 61 1 0 0
SMALL
USER_CHARGES


@<TRIPOS>ATOM
      1 C1        -16.5292   -6.5365   53.7248 C.ar    1  ZINC001345266033   -0.1100
      2 C2        -15.3422   -6.4652   54.4494 C.ar    1  ZINC001345266033   -0.0900
      3 C3        -14.8660   -5.2684   54.9002 C.ar    1  ZINC001345266033   -0.1100
      4 C4        -15.5809   -4.0994   54.6294 C.ar    1  ZINC001345266033    0.0000
      5 C5        -16.7904   -4.1672   53.8910 C.ar    1  ZINC001345266033   -0.1100
      6 C6        -17.2506   -5.4153   53.4434 C.ar    1  ZINC001345266033   -0.0900
      7 C7        -17.4888   -2.9767   53.6325 C.ar    1  ZINC001345266033    0.1700
      8 N8        -17.0365   -1.8235   54.0624 N.ar    1  ZINC001345266033   -0.4800
      9 C9        -15.9182   -1.6861   54.7551 C.ar    1  ZINC001345266033    0.0900
     10 C10       -15.1308   -2.7830   55.0801 C.ar    1  ZINC001345266033   -0.0700
     11 C11       -13.8841   -2.6257   55.8531 C.2     1  ZINC001345266033    0.2300
     12 N12       -12.6627   -2.8370   55.4172 N.2     1  ZINC001345266033   -0.2600
     13 N13       -11.8164   -2.6029   56.3555 N.2     1  ZINC001345266033   -0.3000
     14 C14       -12.4446   -2.2282   57.4472 C.2     1  ZINC001345266033    0.3600
     15 N15       -11.8604   -1.8946   58.6563 N.3     1  ZINC001345266033   -0.4600
     16 C16       -10.8759   -2.9052   59.0615 C.3     1  ZINC001345266033    0.0600
     17 C17       -10.4090   -2.6328   60.4928 C.3     1  ZINC001345266033   -0.1100
     18 C18        -9.7164   -1.2658   60.5456 C.3     1  ZINC001345266033   -0.0800
     19 C19       -10.6715   -0.2140   59.9715 C.3     1  ZINC001345266033   -0.1300
     20 C20       -11.5603    0.5497   60.9520 C.3     1  ZINC001345266033   -0.1600
     21 C21       -10.3808    1.2542   60.2777 C.3     1  ZINC001345266033   -0.1700
     22 C22       -11.2545   -0.5560   58.5973 C.3     1  ZINC001345266033    0.1100
     23 N23       -13.7800   -2.2240   57.1654 N.pl3   1  ZINC001345266033   -0.4600
     24 C24       -14.8750   -1.8731   58.0732 C.3     1  ZINC001345266033    0.1000
     25 C25       -15.0788   -3.0014   59.0864 C.3     1  ZINC001345266033   -0.1400
     26 H26       -14.6133   -3.9207   58.7309 H       1  ZINC001345266033    0.1000
     27 C27       -16.5875   -3.2254   59.3516 C.3     1  ZINC001345266033   -0.1500
     28 C28       -16.6159   -3.4649   60.8828 C.3     1  ZINC001345266033    0.0500
     29 O29       -15.6100   -2.5585   61.3840 O.3     1  ZINC001345266033   -0.3700
     30 C30       -14.5057   -2.6028   60.4601 C.3     1  ZINC001345266033    0.0300
     31 H31       -16.8816   -7.4960   53.3761 H       1  ZINC001345266033    0.1300
     32 H32       -14.7906   -7.3700   54.6579 H       1  ZINC001345266033    0.1300
     33 H33       -13.9445   -5.2256   55.4618 H       1  ZINC001345266033    0.1600
     34 H34       -18.1691   -5.4864   52.8798 H       1  ZINC001345266033    0.1400
     35 H35       -18.4111   -3.0114   53.0715 H       1  ZINC001345266033    0.1700
     36 H36       -15.6111   -0.7010   55.0742 H       1  ZINC001345266033    0.1700
     37 H37       -11.3310   -3.8944   59.0112 H       1  ZINC001345266033    0.0700
     38 H38       -10.0198   -2.8673   58.3880 H       1  ZINC001345266033    0.0500
     39 H39       -11.2691   -2.6313   61.1624 H       1  ZINC001345266033    0.0800
     40 H40        -9.7079   -3.4083   60.8010 H       1  ZINC001345266033    0.0800
     41 H41        -9.4760   -1.0168   61.5792 H       1  ZINC001345266033    0.0700
     42 H42        -8.8034   -1.2948   59.9510 H       1  ZINC001345266033    0.0700
     43 H43       -12.5633    0.8168   60.6193 H       1  ZINC001345266033    0.0900
     44 H44       -11.4643    0.3091   62.0108 H       1  ZINC001345266033    0.0900
     45 H45        -9.5090    1.4770   60.8927 H       1  ZINC001345266033    0.1000
     46 H46       -10.6080    1.9847   59.5012 H       1  ZINC001345266033    0.1000
     47 H47       -10.4599   -0.5475   57.8513 H       1  ZINC001345266033    0.0600
     48 H48       -12.0155    0.1777   58.3308 H       1  ZINC001345266033    0.0800
     49 H49       -14.6287   -0.9515   58.6005 H       1  ZINC001345266033    0.1100
     50 H50       -15.7908   -1.7300   57.4998 H       1  ZINC001345266033    0.1100
     51 H51       -17.1649   -2.3401   59.0855 H       1  ZINC001345266033    0.0800
     52 H52       -16.9511   -4.1013   58.8142 H       1  ZINC001345266033    0.0900
     53 H53       -17.5950   -3.2161   61.2920 H       1  ZINC001345266033    0.1000
     54 H54       -16.3526   -4.4968   61.1148 H       1  ZINC001345266033    0.0600
     55 H55       -13.7764   -3.3428   60.7896 H       1  ZINC001345266033    0.0600
     56 H56       -14.0370   -1.6209   60.3953 H       1  ZINC001345266033    0.0900
@<TRIPOS>BOND
     1     1     6   ar
     2     1     2   ar
     3     1    31    1
     4     2     3   ar
     5     2    32    1
     6     3     4   ar
     7     3    33    1
     8     4    10   ar
     9     4     5   ar
    10     5     6   ar
    11     5     7   ar
    12     6    34    1
    13     7     8   ar
    14     7    35    1
    15     8     9   ar
    16     9    10   ar
    17     9    36    1
    18    10    11    1
    19    11    23    1
    20    11    12    2
    21    12    13    1
    22    13    14    2
    23    14    15    1
    24    14    23    1
    25    15    22    1
    26    15    16    1
    27    16    17    1
    28    16    37    1
    29    16    38    1
    30    17    18    1
    31    17    39    1
    32    17    40    1
    33    18    19    1
    34    18    41    1
    35    18    42    1
    36    19    21    1
    37    19    20    1
    38    19    22    1
    39    20    21    1
    40    20    43    1
    41    20    44    1
    42    21    45    1
    43    21    46    1
    44    22    47    1
    45    22    48    1
    46    23    24    1
    47    24    25    1
    48    24    49    1
    49    24    50    1
    50    25    26    1
    51    25    30    1
    52    25    27    1
    53    27    28    1
    54    27    51    1
    55    27    52    1
    56    28    29    1
    57    28    53    1
    58    28    54    1
    59    29    30    1
    60    30    55    1
    61    30    56    1
@<TRIPOS>SUBSTRUCTURE
     1 ZINC001345266033        1 TEMP              0 ****  ****    0 ROOT


##########                                Name:    ZINC000885154703
##########                DOCK_Rotatable_Bonds:                   5
##########                         Heavy_Atoms:                  24
##########                    Molecular_Weight:             396.259
##########                DOCK_Rotatable_Bonds:                   5
##########                       Formal_Charge:          -0.0099998
##########                     HBond_Acceptors:                   6
##########                        HBond_Donors:                   1
##########                         Heavy_Atoms:                  24
##########                          Grid_Score:          -27.123606
##########                     Grid_vdw_energy:          -26.902538
##########                      Grid_es_energy:           -0.221068
##########           Internal_energy_repulsive:            8.437465

@<TRIPOS>MOLECULE
ZINC000885154703
 43 45 1 0 0
SMALL
USER_CHARGES


@<TRIPOS>ATOM
      1 C1         -6.4594   -0.6066   51.4393 C.3     1  ZINC000885154703   -0.1500
      2 C2         -6.9452    0.6841   52.1019 C.3     1  ZINC000885154703   -0.0300
      3 C3         -8.2839    0.4428   52.7504 C.2     1  ZINC000885154703    0.1700
      4 N4         -9.2389   -0.3068   52.2872 N.2     1  ZINC000885154703   -0.3800
      5 O5        -10.1873   -0.2935   53.0434 O.3     1  ZINC000885154703    0.0800
      6 C6         -9.9192    0.4896   54.0926 C.2     1  ZINC000885154703    0.1800
      7 C7        -10.8328    0.7740   55.2568 C.3     1  ZINC000885154703    0.0000
      8 H8        -11.4305    1.6626   55.0537 H       1  ZINC000885154703    0.1300
      9 C9        -10.0037    0.9774   56.5417 C.3     1  ZINC000885154703   -0.1200
     10 C10       -10.8603    0.3232   57.6541 C.3     1  ZINC000885154703   -0.1300
     11 C11       -11.4488   -0.9216   56.9447 C.3     1  ZINC000885154703    0.1400
     12 H12       -10.7184   -1.7305   56.9254 H       1  ZINC000885154703    0.1000
     13 N13       -12.6781   -1.3582   57.6113 N.am    1  ZINC000885154703   -0.7100
     14 C14       -12.6729   -2.4690   58.3744 C.2     1  ZINC000885154703    0.5700
     15 O15       -11.6484   -3.1096   58.5085 O.2     1  ZINC000885154703   -0.5100
     16 C16       -13.9119   -2.9082   59.0479 C.ar    1  ZINC000885154703   -0.1600
     17 C17       -14.8297   -3.7179   58.3719 C.ar    1  ZINC000885154703    0.1500
     18 F18       -14.5864   -4.1016   57.0996 F       1  ZINC000885154703   -0.1200
     19 C19       -15.9875   -4.1252   59.0100 C.ar    1  ZINC000885154703   -0.1500
     20 C20       -16.2370   -3.7330   60.3114 C.ar    1  ZINC000885154703   -0.0400
     21 C21       -15.3312   -2.9308   60.9862 C.ar    1  ZINC000885154703   -0.1100
     22 Br22      -15.6849   -2.4013   62.7667 Br      1  ZINC000885154703   -0.0300
     23 C23       -14.1697   -2.5215   60.3649 C.ar    1  ZINC000885154703    0.0100
     24 C24       -13.1862   -1.6493   61.1018 C.3     1  ZINC000885154703   -0.1300
     25 C25       -11.7525   -0.4329   55.5122 C.3     1  ZINC000885154703   -0.1300
     26 N26        -8.7074    0.9593   53.9178 N.2     1  ZINC000885154703   -0.4800
     27 H27        -6.3623   -1.3878   52.1933 H       1  ZINC000885154703    0.0600
     28 H28        -7.1786   -0.9194   50.6824 H       1  ZINC000885154703    0.0600
     29 H29        -5.4911   -0.4321   50.9702 H       1  ZINC000885154703    0.0700
     30 H30        -6.2258    0.9969   52.8588 H       1  ZINC000885154703    0.1000
     31 H31        -7.0422    1.4653   51.3480 H       1  ZINC000885154703    0.0900
     32 H32        -9.0399    0.4751   56.4574 H       1  ZINC000885154703    0.0800
     33 H33        -9.8650    2.0398   56.7421 H       1  ZINC000885154703    0.0900
     34 H34       -10.2372    0.0282   58.4983 H       1  ZINC000885154703    0.0800
     35 H35       -11.6550    0.9963   57.9757 H       1  ZINC000885154703    0.0800
     36 H36       -13.4959   -0.8478   57.5033 H       1  ZINC000885154703    0.4000
     37 H37       -16.6980   -4.7507   58.4899 H       1  ZINC000885154703    0.1500
     38 H38       -17.1427   -4.0532   60.8047 H       1  ZINC000885154703    0.1500
     39 H39       -12.4673   -2.2771   61.6283 H       1  ZINC000885154703    0.0900
     40 H40       -12.6603   -1.0131   60.3899 H       1  ZINC000885154703    0.0800
     41 H41       -13.7197   -1.0270   61.8202 H       1  ZINC000885154703    0.0900
     42 H42       -12.7969   -0.1308   55.4344 H       1  ZINC000885154703    0.0900
     43 H43       -11.5378   -1.2244   54.7943 H       1  ZINC000885154703    0.0800
@<TRIPOS>BOND
     1     1     2    1
     2     1    27    1
     3     1    28    1
     4     1    29    1
     5     2     3    1
     6     2    30    1
     7     2    31    1
     8     3    26    1
     9     3     4    2
    10     4     5    1
    11     5     6    1
    12     6     7    1
    13     6    26    2
    14     7     8    1
    15     7    25    1
    16     7     9    1
    17     9    10    1
    18     9    32    1
    19     9    33    1
    20    10    11    1
    21    10    34    1
    22    10    35    1
    23    11    12    1
    24    11    13    1
    25    11    25    1
    26    13    14   am
    27    13    36    1
    28    14    15    2
    29    14    16    1
    30    16    23   ar
    31    16    17   ar
    32    17    18    1
    33    17    19   ar
    34    19    20   ar
    35    19    37    1
    36    20    21   ar
    37    20    38    1
    38    21    22    1
    39    21    23   ar
    40    23    24    1
    41    24    39    1
    42    24    40    1
    43    24    41    1
    44    25    42    1
    45    25    43    1
@<TRIPOS>SUBSTRUCTURE
     1 ZINC000885154703        1 TEMP              0 ****  ****    0 ROOT


##########                                Name:    ZINC000506388363
##########                DOCK_Rotatable_Bonds:                   5
##########                         Heavy_Atoms:                  29
##########                    Molecular_Weight:             416.858
##########                DOCK_Rotatable_Bonds:                   5
##########                       Formal_Charge:         7.07805e-07
##########                     HBond_Acceptors:                   8
##########                        HBond_Donors:                   1
##########                         Heavy_Atoms:                  29
##########                          Grid_Score:          -27.118441
##########                     Grid_vdw_energy:          -25.943275
##########                      Grid_es_energy:           -1.175166
##########           Internal_energy_repulsive:            9.214593

@<TRIPOS>MOLECULE
ZINC000506388363
 48 51 1 0 0
SMALL
USER_CHARGES


@<TRIPOS>ATOM
      1 O1         -9.8045    3.4776   55.3844 O.2     1  ZINC000506388363   -0.5300
      2 C2         -9.7240    2.2765   55.5523 C.2     1  ZINC000506388363    0.5600
      3 C3         -9.5851    1.3750   54.3887 C.ar    1  ZINC000506388363   -0.1200
      4 C4        -10.7205    0.9008   53.7301 C.ar    1  ZINC000506388363   -0.0900
      5 C5        -10.5847    0.0602   52.6444 C.ar    1  ZINC000506388363   -0.1100
      6 C6         -9.3265   -0.3135   52.2081 C.ar    1  ZINC000506388363   -0.0900
      7 C7         -8.1953    0.1530   52.8567 C.ar    1  ZINC000506388363   -0.0400
      8 Cl8        -6.6204   -0.3213   52.3013 Cl      1  ZINC000506388363   -0.0600
      9 C9         -8.3177    0.9993   53.9407 C.ar    1  ZINC000506388363   -0.0600
     10 N10        -9.7559    1.7668   56.7996 N.am    1  ZINC000506388363   -0.6100
     11 C11        -9.8996    2.6451   57.9705 C.3     1  ZINC000506388363    0.1000
     12 C12       -11.0452    2.1148   58.8392 C.3     1  ZINC000506388363    0.0400
     13 N13       -10.8047    0.6993   59.1502 N.3     1  ZINC000506388363   -0.5300
     14 C14       -11.7878    0.1992   60.1205 C.3     1  ZINC000506388363    0.1200
     15 C15       -11.2411   -1.0288   60.8019 C.2     1  ZINC000506388363   -0.2100
     16 C16       -10.0909   -1.1020   61.5066 C.2     1  ZINC000506388363    0.0600
     17 N17        -9.9563   -2.3688   61.9543 N.pl3   1  ZINC000506388363   -0.4700
     18 N18       -11.0612   -3.1075   61.5120 N.2     1  ZINC000506388363   -0.2700
     19 C19       -11.8416   -2.3028   60.8222 C.2     1  ZINC000506388363    0.1300
     20 C20       -13.1224   -2.6747   60.1716 C.ar    1  ZINC000506388363   -0.0700
     21 C21       -13.1271   -3.1772   58.8702 C.ar    1  ZINC000506388363    0.1500
     22 F22       -11.9647   -3.3273   58.1982 F       1  ZINC000506388363   -0.1200
     23 C23       -14.3239   -3.5218   58.2698 C.ar    1  ZINC000506388363   -0.1600
     24 C24       -15.5146   -3.3692   58.9564 C.ar    1  ZINC000506388363   -0.0500
     25 C25       -15.5169   -2.8716   60.2467 C.ar    1  ZINC000506388363   -0.1600
     26 C26       -14.3265   -2.5287   60.8607 C.ar    1  ZINC000506388363    0.1600
     27 F27       -14.3303   -2.0427   62.1212 F       1  ZINC000506388363   -0.1200
     28 C28       -10.8032   -0.1213   57.9318 C.3     1  ZINC000506388363    0.0400
     29 C29        -9.6540    0.3170   57.0255 C.3     1  ZINC000506388363    0.1200
     30 H30       -11.7038    1.1912   54.0700 H       1  ZINC000506388363    0.1400
     31 H31       -11.4629   -0.3071   52.1343 H       1  ZINC000506388363    0.1400
     32 H32        -9.2258   -0.9724   51.3583 H       1  ZINC000506388363    0.1400
     33 H33        -7.4352    1.3630   54.4458 H       1  ZINC000506388363    0.1400
     34 H34        -8.9734    2.6437   58.5452 H       1  ZINC000506388363    0.0800
     35 H35       -10.1284    3.6589   57.6419 H       1  ZINC000506388363    0.1000
     36 H36       -11.0945    2.6874   59.7654 H       1  ZINC000506388363    0.0900
     37 H37       -11.9869    2.2136   58.2993 H       1  ZINC000506388363    0.0400
     38 H38       -11.9874    0.9695   60.8653 H       1  ZINC000506388363    0.1000
     39 H39       -12.7129   -0.0541   59.6027 H       1  ZINC000506388363    0.0400
     40 H40        -9.4004   -0.2901   61.6810 H       1  ZINC000506388363    0.1800
     41 H41        -9.2216   -2.7085   62.4890 H       1  ZINC000506388363    0.4400
     42 H42       -14.3290   -3.9106   57.2621 H       1  ZINC000506388363    0.1500
     43 H43       -16.4468   -3.6395   58.4828 H       1  ZINC000506388363    0.1500
     44 H44       -16.4502   -2.7546   60.7774 H       1  ZINC000506388363    0.1500
     45 H45       -10.6772   -1.1702   58.1998 H       1  ZINC000506388363    0.0900
     46 H46       -11.7483    0.0088   57.4045 H       1  ZINC000506388363    0.0400
     47 H47        -9.7177   -0.2090   56.0730 H       1  ZINC000506388363    0.1000
     48 H48        -8.7020    0.0936   57.5074 H       1  ZINC000506388363    0.0800
@<TRIPOS>BOND
     1     1     2    2
     2     2     3    1
     3     2    10   am
     4     3     9   ar
     5     3     4   ar
     6     4     5   ar
     7     4    30    1
     8     5     6   ar
     9     5    31    1
    10     6     7   ar
    11     6    32    1
    12     7     8    1
    13     7     9   ar
    14     9    33    1
    15    10    29    1
    16    10    11    1
    17    11    12    1
    18    11    34    1
    19    11    35    1
    20    12    13    1
    21    12    36    1
    22    12    37    1
    23    13    14    1
    24    13    28    1
    25    14    15    1
    26    14    38    1
    27    14    39    1
    28    15    19    1
    29    15    16    2
    30    16    17    1
    31    16    40    1
    32    17    18    1
    33    17    41    1
    34    18    19    2
    35    19    20    1
    36    20    26   ar
    37    20    21   ar
    38    21    22    1
    39    21    23   ar
    40    23    24   ar
    41    23    42    1
    42    24    25   ar
    43    24    43    1
    44    25    26   ar
    45    25    44    1
    46    26    27    1
    47    28    29    1
    48    28    45    1
    49    28    46    1
    50    29    47    1
    51    29    48    1
@<TRIPOS>SUBSTRUCTURE
     1 ZINC000506388363        1 TEMP              0 ****  ****    0 ROOT


##########                                Name:    ZINC000549659617
##########                DOCK_Rotatable_Bonds:                   9
##########                         Heavy_Atoms:                  28
##########                    Molecular_Weight:              418.48
##########                DOCK_Rotatable_Bonds:                   9
##########                       Formal_Charge:          0.00999956
##########                     HBond_Acceptors:                   9
##########                        HBond_Donors:                   1
##########                         Heavy_Atoms:                  28
##########                          Grid_Score:          -27.107805
##########                     Grid_vdw_energy:          -26.259346
##########                      Grid_es_energy:           -0.848459
##########           Internal_energy_repulsive:           20.292927

@<TRIPOS>MOLECULE
ZINC000549659617
 53 55 1 0 0
SMALL
USER_CHARGES


@<TRIPOS>ATOM
      1 C1          1.4280    5.6400   47.5717 C.3     1  ZINC000549659617   -0.1500
      2 C2          1.3629    4.1224   47.3875 C.3     1  ZINC000549659617   -0.1500
      3 C3         -0.0823    3.7041   47.1097 C.3     1  ZINC000549659617    0.1100
      4 N4         -0.4466    2.5919   47.9909 N.am    1  ZINC000549659617   -0.6100
      5 C5         -0.9298    2.8399   49.2244 C.2     1  ZINC000549659617    0.7100
      6 O6         -1.2336    1.9170   49.9553 O.2     1  ZINC000549659617   -0.5700
      7 N7         -1.0761    4.1111   49.6478 N.am    1  ZINC000549659617   -0.7400
      8 C8         -1.6029    4.3807   50.9880 C.3     1  ZINC000549659617    0.2300
      9 H9         -2.3534    3.6317   51.2410 H       1  ZINC000549659617    0.1100
     10 C10        -0.4789    4.3239   51.9903 C.ar    1  ZINC000549659617   -0.0900
     11 C11        -0.7076    3.8211   53.2573 C.ar    1  ZINC000549659617   -0.0800
     12 C12         0.3235    3.7690   54.1768 C.ar    1  ZINC000549659617   -0.1100
     13 C13         1.5831    4.2193   53.8289 C.ar    1  ZINC000549659617   -0.0700
     14 C14         1.8121    4.7214   52.5612 C.ar    1  ZINC000549659617   -0.1800
     15 C15         3.1853    5.2128   52.1821 C.3     1  ZINC000549659617    0.5100
     16 F16         3.8347    5.7054   53.3192 F       1  ZINC000549659617   -0.1800
     17 F17         3.9264    4.1557   51.6430 F       1  ZINC000549659617   -0.1700
     18 F18         3.0696    6.2334   51.2322 F       1  ZINC000549659617   -0.1700
     19 C19         0.7823    4.7695   51.6406 C.ar    1  ZINC000549659617   -0.0500
     20 C20        -2.2407    5.7712   51.0151 C.3     1  ZINC000549659617   -0.1700
     21 C21        -3.7609    5.8482   51.1693 C.3     1  ZINC000549659617   -0.1700
     22 C22        -2.8527    6.2420   52.3359 C.3     1  ZINC000549659617   -0.1800
     23 C23        -0.2859    1.2101   47.5313 C.3     1  ZINC000549659617    0.1700
     24 H24        -0.3022    0.5296   48.3826 H       1  ZINC000549659617    0.1100
     25 C25         1.0388    1.0612   46.7629 C.3     1  ZINC000549659617   -0.1400
     26 C26         1.0245   -0.2835   46.0090 C.3     1  ZINC000549659617   -0.5900
     27 S27        -0.7423   -0.6286   45.6846 S.o2    1  ZINC000549659617    2.3900
     28 O28        -0.9944   -0.5232   44.2900 O.2     1  ZINC000549659617   -0.9300
     29 O29        -1.1298   -1.8015   46.3871 O.2     1  ZINC000549659617   -0.9400
     30 C30        -1.4194    0.8456   46.5383 C.3     1  ZINC000549659617   -0.6100
     31 H31         2.4576    5.9381   47.7697 H       1  ZINC000549659617    0.0600
     32 H32         1.0754    6.1314   46.6650 H       1  ZINC000549659617    0.0600
     33 H33         0.7975    5.9314   48.4117 H       1  ZINC000549659617    0.0600
     34 H34         1.9935    3.8310   46.5475 H       1  ZINC000549659617    0.0700
     35 H35         1.7156    3.6310   48.2943 H       1  ZINC000549659617    0.0700
     36 H36        -0.7469    4.5477   47.2956 H       1  ZINC000549659617    0.0800
     37 H37        -0.1761    3.3897   46.0702 H       1  ZINC000549659617    0.0900
     38 H38        -0.8326    4.8474   49.0652 H       1  ZINC000549659617    0.4000
     39 H39        -1.6918    3.4693   53.5291 H       1  ZINC000549659617    0.1300
     40 H40         0.1447    3.3768   55.1670 H       1  ZINC000549659617    0.1400
     41 H41         2.3884    4.1793   54.5474 H       1  ZINC000549659617    0.1400
     42 H42         0.9611    5.1617   50.6504 H       1  ZINC000549659617    0.1400
     43 H43        -1.7594    6.5214   50.3877 H       1  ZINC000549659617    0.1100
     44 H44        -4.2802    6.6492   50.6430 H       1  ZINC000549659617    0.0900
     45 H45        -4.3068    4.9083   51.2514 H       1  ZINC000549659617    0.0900
     46 H46        -2.8011    5.5611   53.1855 H       1  ZINC000549659617    0.1200
     47 H47        -2.7745    7.3021   52.5772 H       1  ZINC000549659617    0.0900
     48 H48         1.1434    1.8795   46.0505 H       1  ZINC000549659617    0.1100
     49 H49         1.8733    1.0793   47.4639 H       1  ZINC000549659617    0.0900
     50 H50         1.5719   -0.1971   45.0703 H       1  ZINC000549659617    0.1400
     51 H51         1.4560   -1.0695   46.6286 H       1  ZINC000549659617    0.1400
     52 H52        -2.3370    0.5966   47.0714 H       1  ZINC000549659617    0.1400
     53 H53        -1.5896    1.6578   45.8315 H       1  ZINC000549659617    0.1600
@<TRIPOS>BOND
     1     1     2    1
     2     1    31    1
     3     1    32    1
     4     1    33    1
     5     2     3    1
     6     2    34    1
     7     2    35    1
     8     3     4    1
     9     3    36    1
    10     3    37    1
    11     4     5   am
    12     4    23    1
    13     5     6    2
    14     5     7   am
    15     7     8    1
    16     7    38    1
    17     8     9    1
    18     8    10    1
    19     8    20    1
    20    10    19   ar
    21    10    11   ar
    22    11    12   ar
    23    11    39    1
    24    12    13   ar
    25    12    40    1
    26    13    14   ar
    27    13    41    1
    28    14    15    1
    29    14    19   ar
    30    15    16    1
    31    15    17    1
    32    15    18    1
    33    19    42    1
    34    20    22    1
    35    20    21    1
    36    20    43    1
    37    21    22    1
    38    21    44    1
    39    21    45    1
    40    22    46    1
    41    22    47    1
    42    23    24    1
    43    23    30    1
    44    23    25    1
    45    25    26    1
    46    25    48    1
    47    25    49    1
    48    26    27    1
    49    26    50    1
    50    26    51    1
    51    27    28    2
    52    27    29    2
    53    27    30    1
    54    30    52    1
    55    30    53    1
@<TRIPOS>SUBSTRUCTURE
     1 ZINC000549659617        1 TEMP              0 ****  ****    0 ROOT


##########                                Name:    ZINC001098311495
##########                DOCK_Rotatable_Bonds:                   8
##########                         Heavy_Atoms:                  24
##########                    Molecular_Weight:             328.454
##########                DOCK_Rotatable_Bonds:                   8
##########                       Formal_Charge:          0.00999987
##########                     HBond_Acceptors:                   4
##########                        HBond_Donors:                   1
##########                         Heavy_Atoms:                  24
##########                          Grid_Score:          -27.097538
##########                     Grid_vdw_energy:          -26.764769
##########                      Grid_es_energy:           -0.332770
##########           Internal_energy_repulsive:           28.488346

@<TRIPOS>MOLECULE
ZINC001098311495
 52 54 1 0 0
SMALL
USER_CHARGES


@<TRIPOS>ATOM
      1 C1          1.9166    2.2582   52.0707 C.3     1  ZINC001098311495   -0.1500
      2 C2          2.0054    3.2735   50.9296 C.3     1  ZINC001098311495    0.0500
      3 O3          0.7668    3.2991   50.2174 O.3     1  ZINC001098311495   -0.2800
      4 C4         -0.3315    3.6983   50.9062 C.ar    1  ZINC001098311495    0.1900
      5 C5         -0.2160    4.6434   51.9143 C.ar    1  ZINC001098311495   -0.2200
      6 C6         -1.3340    5.0440   52.6191 C.ar    1  ZINC001098311495   -0.0500
      7 C7         -2.5777    4.5119   52.3215 C.ar    1  ZINC001098311495   -0.1700
      8 C8         -2.7119    3.5761   51.3185 C.ar    1  ZINC001098311495   -0.0500
      9 C9         -1.5893    3.1617   50.5981 C.ar    1  ZINC001098311495   -0.1800
     10 C10        -1.7257    2.1604   49.5232 C.2     1  ZINC001098311495    0.5600
     11 O11        -2.2475    1.0868   49.7550 O.2     1  ZINC001098311495   -0.5200
     12 N12        -1.2717    2.4355   48.2844 N.am    1  ZINC001098311495   -0.7200
     13 C13        -1.4087    1.4419   47.2166 C.3     1  ZINC001098311495    0.1600
     14 H14        -2.4491    1.1346   47.1111 H       1  ZINC001098311495    0.1000
     15 C15        -0.5005    0.2182   47.4910 C.3     1  ZINC001098311495   -0.1200
     16 C16         0.4719    0.2057   46.2731 C.3     1  ZINC001098311495    0.0500
     17 H17         1.4066   -0.3346   46.4227 H       1  ZINC001098311495    0.1100
     18 C18        -0.3838   -0.2544   45.0545 C.3     1  ZINC001098311495   -0.1500
     19 C19        -1.2913    0.9668   44.7678 C.3     1  ZINC001098311495   -0.1500
     20 C20        -0.8636    2.0053   45.8696 C.3     1  ZINC001098311495    0.0400
     21 H21        -1.1035    3.0461   45.6521 H       1  ZINC001098311495    0.1200
     22 N22         0.6022    1.6802   45.9934 N.3     1  ZINC001098311495   -0.4900
     23 C23         1.3026    1.9153   44.7237 C.3     1  ZINC001098311495    0.0600
     24 C24         2.4949    2.8047   44.9649 C.2     1  ZINC001098311495   -0.1600
     25 C25         2.4568    4.0635   44.6040 C.2     1  ZINC001098311495   -0.1200
     26 C26         3.6491    4.9530   44.8452 C.3     1  ZINC001098311495   -0.1200
     27 C27         1.2205    4.6220   43.9478 C.3     1  ZINC001098311495   -0.1200
     28 H28         1.1131    2.5438   52.7495 H       1  ZINC001098311495    0.0700
     29 H29         1.7123    1.2687   51.6616 H       1  ZINC001098311495    0.0700
     30 H30         2.8614    2.2386   52.6140 H       1  ZINC001098311495    0.0800
     31 H31         2.8090    2.9879   50.2509 H       1  ZINC001098311495    0.0600
     32 H32         2.2098    4.2629   51.3388 H       1  ZINC001098311495    0.0600
     33 H33         0.7503    5.0632   52.1519 H       1  ZINC001098311495    0.1300
     34 H34        -1.2383    5.7768   53.4066 H       1  ZINC001098311495    0.1300
     35 H35        -3.4464    4.8320   52.8778 H       1  ZINC001098311495    0.1300
     36 H36        -3.6835    3.1636   51.0901 H       1  ZINC001098311495    0.1300
     37 H37        -0.8543    3.2915   48.0997 H       1  ZINC001098311495    0.4000
     38 H38        -1.0900   -0.6982   47.5208 H       1  ZINC001098311495    0.0800
     39 H39         0.0514    0.3509   48.4214 H       1  ZINC001098311495    0.0800
     40 H40         0.2538   -0.4685   44.1968 H       1  ZINC001098311495    0.0700
     41 H41        -0.9844   -1.1262   45.3146 H       1  ZINC001098311495    0.0800
     42 H42        -1.1035    1.3581   43.7679 H       1  ZINC001098311495    0.0700
     43 H43        -2.3417    0.7005   44.8856 H       1  ZINC001098311495    0.0800
     44 H44         0.6255    2.3985   44.0193 H       1  ZINC001098311495    0.0500
     45 H45         1.6369    0.9632   44.3114 H       1  ZINC001098311495    0.0800
     46 H46         3.3809    2.4045   45.4353 H       1  ZINC001098311495    0.1100
     47 H47         3.5612    5.4206   45.8259 H       1  ZINC001098311495    0.0700
     48 H48         3.6878    5.7250   44.0767 H       1  ZINC001098311495    0.0600
     49 H49         4.5607    4.3567   44.8074 H       1  ZINC001098311495    0.0600
     50 H50         1.2569    4.4241   42.8765 H       1  ZINC001098311495    0.0700
     51 H51         0.3367    4.1482   44.3749 H       1  ZINC001098311495    0.0600
     52 H52         1.1737    5.6978   44.1171 H       1  ZINC001098311495    0.0600
@<TRIPOS>BOND
     1     1     2    1
     2     1    28    1
     3     1    29    1
     4     1    30    1
     5     2     3    1
     6     2    31    1
     7     2    32    1
     8     3     4    1
     9     4     9   ar
    10     4     5   ar
    11     5     6   ar
    12     5    33    1
    13     6     7   ar
    14     6    34    1
    15     7     8   ar
    16     7    35    1
    17     8     9   ar
    18     8    36    1
    19     9    10    1
    20    10    11    2
    21    10    12   am
    22    12    13    1
    23    12    37    1
    24    13    14    1
    25    13    20    1
    26    13    15    1
    27    15    16    1
    28    15    38    1
    29    15    39    1
    30    16    17    1
    31    16    22    1
    32    16    18    1
    33    18    19    1
    34    18    40    1
    35    18    41    1
    36    19    20    1
    37    19    42    1
    38    19    43    1
    39    20    21    1
    40    20    22    1
    41    22    23    1
    42    23    24    1
    43    23    44    1
    44    23    45    1
    45    24    25    2
    46    24    46    1
    47    25    26    1
    48    25    27    1
    49    26    47    1
    50    26    48    1
    51    26    49    1
    52    27    50    1
    53    27    51    1
    54    27    52    1
@<TRIPOS>SUBSTRUCTURE
     1 ZINC001098311495        1 TEMP              0 ****  ****    0 ROOT


##########                                Name:    ZINC000274267583
##########                DOCK_Rotatable_Bonds:                   5
##########                         Heavy_Atoms:                  24
##########                    Molecular_Weight:             349.407
##########                DOCK_Rotatable_Bonds:                   5
##########                       Formal_Charge:           0.0300001
##########                     HBond_Acceptors:                   7
##########                        HBond_Donors:                   1
##########                         Heavy_Atoms:                  24
##########                          Grid_Score:          -27.096266
##########                     Grid_vdw_energy:          -26.080673
##########                      Grid_es_energy:           -1.015592
##########           Internal_energy_repulsive:           16.004961

@<TRIPOS>MOLECULE
ZINC000274267583
 43 45 1 0 0
SMALL
USER_CHARGES


@<TRIPOS>ATOM
      1 C1        -15.1036   -6.5640   54.8873 C.3     1  ZINC000274267583    0.0200
      2 O2        -14.6699   -5.2118   54.7274 O.3     1  ZINC000274267583   -0.3100
      3 C3        -14.7013   -4.4193   55.8311 C.ar    1  ZINC000274267583    0.1900
      4 C4        -14.3006   -3.0938   55.7463 C.ar    1  ZINC000274267583   -0.2300
      5 C5        -14.3339   -2.2902   56.8695 C.ar    1  ZINC000274267583    0.0300
      6 C6        -14.7656   -2.8060   58.0775 C.ar    1  ZINC000274267583   -0.7200
      7 S7        -14.8062   -1.7787   59.5083 S.o2    1  ZINC000274267583    2.7000
      8 O8        -15.5249   -0.6087   59.1421 O.2     1  ZINC000274267583   -0.9500
      9 O9        -15.1845   -2.6156   60.5927 O.2     1  ZINC000274267583   -0.9500
     10 N10       -13.2509   -1.2967   59.8101 N.am    1  ZINC000274267583   -1.1100
     11 C11       -12.2133   -2.2957   60.0778 C.3     1  ZINC000274267583    0.2100
     12 H12       -12.6760   -3.2059   60.4590 H       1  ZINC000274267583    0.1000
     13 C13       -11.4629   -2.6103   58.7813 C.3     1  ZINC000274267583   -0.1800
     14 C14       -10.2092   -3.4206   59.1345 C.3     1  ZINC000274267583    0.0600
     15 O15        -9.3449   -2.5951   59.9165 O.3     1  ZINC000274267583   -0.3100
     16 C16        -9.8838   -1.9361   60.9764 C.ar    1  ZINC000274267583    0.1100
     17 C17        -9.0264   -1.4349   61.9501 C.ar    1  ZINC000274267583   -0.1100
     18 C18        -9.5320   -0.7555   63.0396 C.ar    1  ZINC000274267583   -0.1600
     19 C19       -10.9006   -0.5709   63.1649 C.ar    1  ZINC000274267583    0.0900
     20 O20       -11.4023    0.1005   64.2357 O.3     1  ZINC000274267583   -0.3200
     21 C21       -10.4661    0.5440   65.2201 C.3     1  ZINC000274267583    0.0300
     22 C22       -11.7561   -1.0716   62.1966 C.ar    1  ZINC000274267583   -0.1000
     23 C23       -11.2494   -1.7553   61.1035 C.ar    1  ZINC000274267583   -0.1400
     24 C24       -15.1658   -4.1266   58.1645 C.ar    1  ZINC000274267583    0.0200
     25 C25       -15.1394   -4.9330   57.0430 C.ar    1  ZINC000274267583   -0.1700
     26 H26       -14.4740   -7.0628   55.6240 H       1  ZINC000274267583    0.0600
     27 H27       -16.1393   -6.5756   55.2269 H       1  ZINC000274267583    0.0600
     28 H28       -15.0284   -7.0849   53.9327 H       1  ZINC000274267583    0.1100
     29 H29       -13.9627   -2.6906   54.8031 H       1  ZINC000274267583    0.1400
     30 H30       -14.0221   -1.2583   56.8039 H       1  ZINC000274267583    0.1400
     31 H31       -13.0269   -0.3528   59.8098 H       1  ZINC000274267583    0.4200
     32 H32       -12.1026   -3.1933   58.1188 H       1  ZINC000274267583    0.1000
     33 H33       -11.1735   -1.6815   58.2897 H       1  ZINC000274267583    0.0900
     34 H34       -10.4921   -4.3031   59.7084 H       1  ZINC000274267583    0.0700
     35 H35        -9.6989   -3.7244   58.2206 H       1  ZINC000274267583    0.1200
     36 H36        -7.9604   -1.5784   61.8532 H       1  ZINC000274267583    0.1400
     37 H37        -8.8627   -0.3686   63.7938 H       1  ZINC000274267583    0.1400
     38 H38        -9.9393   -0.3158   65.6341 H       1  ZINC000274267583    0.0600
     39 H39        -9.7482    1.2225   64.7591 H       1  ZINC000274267583    0.0600
     40 H40       -10.9966    1.0637   66.0179 H       1  ZINC000274267583    0.1000
     41 H41       -12.8220   -0.9281   62.2944 H       1  ZINC000274267583    0.1300
     42 H42       -15.5029   -4.5272   59.1091 H       1  ZINC000274267583    0.1500
     43 H43       -15.4521   -5.9644   57.1115 H       1  ZINC000274267583    0.1400
@<TRIPOS>BOND
     1     1     2    1
     2     1    26    1
     3     1    27    1
     4     1    28    1
     5     2     3    1
     6     3    25   ar
     7     3     4   ar
     8     4     5   ar
     9     4    29    1
    10     5     6   ar
    11     5    30    1
    12     6     7    1
    13     6    24   ar
    14     7     8    2
    15     7     9    2
    16     7    10   am
    17    10    11    1
    18    10    31    1
    19    11    12    1
    20    11    23    1
    21    11    13    1
    22    13    14    1
    23    13    32    1
    24    13    33    1
    25    14    15    1
    26    14    34    1
    27    14    35    1
    28    15    16    1
    29    16    23   ar
    30    16    17   ar
    31    17    18   ar
    32    17    36    1
    33    18    19   ar
    34    18    37    1
    35    19    20    1
    36    19    22   ar
    37    20    21    1
    38    21    38    1
    39    21    39    1
    40    21    40    1
    41    22    23   ar
    42    22    41    1
    43    24    25   ar
    44    24    42    1
    45    25    43    1
@<TRIPOS>SUBSTRUCTURE
     1 ZINC000274267583        1 TEMP              0 ****  ****    0 ROOT


##########                                Name:    ZINC000186316242
##########                DOCK_Rotatable_Bonds:                   7
##########                         Heavy_Atoms:                  28
##########                    Molecular_Weight:             392.525
##########                DOCK_Rotatable_Bonds:                   7
##########                       Formal_Charge:         -0.00999981
##########                     HBond_Acceptors:                   6
##########                        HBond_Donors:                   0
##########                         Heavy_Atoms:                  28
##########                          Grid_Score:          -27.080688
##########                     Grid_vdw_energy:          -25.610271
##########                      Grid_es_energy:           -1.470417
##########           Internal_energy_repulsive:           23.362080

@<TRIPOS>MOLECULE
ZINC000186316242
 52 55 1 0 0
SMALL
USER_CHARGES


@<TRIPOS>ATOM
      1 C1        -10.9183    0.6624   55.9694 C.3     1  ZINC000186316242   -0.1500
      2 C2        -11.1019   -0.8479   56.1313 C.3     1  ZINC000186316242    0.1000
      3 N3        -11.2305   -1.1745   57.5536 N.am    1  ZINC000186316242   -0.5900
      4 C4        -12.3541   -1.7614   58.0114 C.2     1  ZINC000186316242    0.5900
      5 O5        -12.4609   -2.0325   59.1922 O.2     1  ZINC000186316242   -0.5000
      6 C6        -13.4531   -2.0747   57.0813 C.2     1  ZINC000186316242    0.0100
      7 C7        -14.2808   -1.1174   56.5751 C.2     1  ZINC000186316242   -0.2100
      8 S8        -15.4229   -1.8596   55.5408 S.3     1  ZINC000186316242    0.2000
      9 C9        -14.7100   -3.4375   55.8543 C.2     1  ZINC000186316242    0.0700
     10 C10       -15.1765   -4.7153   55.2732 C.ar    1  ZINC000186316242    0.1900
     11 C11       -16.0907   -4.7035   54.2202 C.ar    1  ZINC000186316242   -0.1500
     12 C12       -16.5175   -5.9074   53.6868 C.ar    1  ZINC000186316242   -0.0700
     13 C13       -16.0162   -7.0846   54.2235 C.ar    1  ZINC000186316242   -0.1600
     14 C14       -15.1114   -7.0233   55.2683 C.ar    1  ZINC000186316242    0.1100
     15 N15       -14.7174   -5.8647   55.7548 N.ar    1  ZINC000186316242   -0.4500
     16 N16       -13.7085   -3.3073   56.6692 N.2     1  ZINC000186316242   -0.3900
     17 C17       -10.1378   -0.8631   58.4785 C.3     1  ZINC000186316242    0.1400
     18 H18        -9.3332   -0.3489   57.9529 H       1  ZINC000186316242    0.1000
     19 C19        -9.6073   -2.1570   59.1374 C.3     1  ZINC000186316242   -0.1300
     20 C20        -9.3345   -1.7156   60.5973 C.3     1  ZINC000186316242    0.0400
     21 N21       -10.4528   -0.7813   60.8846 N.3     1  ZINC000186316242   -0.4900
     22 C22       -10.1262    0.0993   62.0141 C.3     1  ZINC000186316242    0.0800
     23 C23       -11.3969    0.6672   62.5920 C.ar    1  ZINC000186316242   -0.0700
     24 C24       -12.4366   -0.1759   62.9370 C.ar    1  ZINC000186316242   -0.1000
     25 C25       -13.6021    0.3451   63.4670 C.ar    1  ZINC000186316242   -0.1200
     26 C26       -13.7278    1.7091   63.6526 C.ar    1  ZINC000186316242   -0.1200
     27 C27       -12.6877    2.5521   63.3085 C.ar    1  ZINC000186316242   -0.1200
     28 C28       -11.5205    2.0308   62.7824 C.ar    1  ZINC000186316242   -0.1100
     29 C29       -10.6537    0.0020   59.6434 C.3     1  ZINC000186316242    0.0400
     30 H30       -10.8226    0.9054   54.9112 H       1  ZINC000186316242    0.0700
     31 H31       -11.7830    1.1801   56.3844 H       1  ZINC000186316242    0.0500
     32 H32       -10.0183    0.9776   56.4974 H       1  ZINC000186316242    0.0400
     33 H33       -12.0019   -1.1631   55.6035 H       1  ZINC000186316242    0.1200
     34 H34       -10.2372   -1.3657   55.7164 H       1  ZINC000186316242    0.0700
     35 H35       -14.2246   -0.0609   56.7920 H       1  ZINC000186316242    0.1900
     36 H36       -16.4607   -3.7682   53.8268 H       1  ZINC000186316242    0.1400
     37 H37       -17.2250   -5.9299   52.8712 H       1  ZINC000186316242    0.1400
     38 H38       -16.3299   -8.0400   53.8296 H       1  ZINC000186316242    0.1400
     39 H39       -14.7200   -7.9380   55.6883 H       1  ZINC000186316242    0.1600
     40 H40       -10.3621   -2.9429   59.1067 H       1  ZINC000186316242    0.0900
     41 H41        -8.6867   -2.4859   58.6554 H       1  ZINC000186316242    0.0700
     42 H42        -9.3663   -2.5722   61.2706 H       1  ZINC000186316242    0.0800
     43 H43        -8.3757   -1.2024   60.6712 H       1  ZINC000186316242    0.0400
     44 H44        -9.6021   -0.4719   62.7803 H       1  ZINC000186316242    0.0400
     45 H45        -9.4890    0.9131   61.6681 H       1  ZINC000186316242    0.0800
     46 H46       -12.3385   -1.2416   62.7920 H       1  ZINC000186316242    0.1200
     47 H47       -14.4147   -0.3136   63.7359 H       1  ZINC000186316242    0.1200
     48 H48       -14.6386    2.1163   64.0661 H       1  ZINC000186316242    0.1200
     49 H49       -12.7859    3.6179   63.4533 H       1  ZINC000186316242    0.1200
     50 H50       -10.7079    2.6895   62.5136 H       1  ZINC000186316242    0.1200
     51 H51       -10.0888    0.9327   59.6961 H       1  ZINC000186316242    0.0500
     52 H52       -11.7138    0.2151   59.5063 H       1  ZINC000186316242    0.0800
@<TRIPOS>BOND
     1     1     2    1
     2     1    30    1
     3     1    31    1
     4     1    32    1
     5     2     3    1
     6     2    33    1
     7     2    34    1
     8     3     4   am
     9     3    17    1
    10     4     5    2
    11     4     6    1
    12     6    16    1
    13     6     7    2
    14     7     8    1
    15     7    35    1
    16     8     9    1
    17     9    10    1
    18     9    16    2
    19    10    15   ar
    20    10    11   ar
    21    11    12   ar
    22    11    36    1
    23    12    13   ar
    24    12    37    1
    25    13    14   ar
    26    13    38    1
    27    14    15   ar
    28    14    39    1
    29    17    18    1
    30    17    29    1
    31    17    19    1
    32    19    20    1
    33    19    40    1
    34    19    41    1
    35    20    21    1
    36    20    42    1
    37    20    43    1
    38    21    22    1
    39    21    29    1
    40    22    23    1
    41    22    44    1
    42    22    45    1
    43    23    28   ar
    44    23    24   ar
    45    24    25   ar
    46    24    46    1
    47    25    26   ar
    48    25    47    1
    49    26    27   ar
    50    26    48    1
    51    27    28   ar
    52    27    49    1
    53    28    50    1
    54    29    51    1
    55    29    52    1
@<TRIPOS>SUBSTRUCTURE
     1 ZINC000186316242        1 TEMP              0 ****  ****    0 ROOT


##########                                Name:    ZINC000463474628
##########                DOCK_Rotatable_Bonds:                   5
##########                         Heavy_Atoms:                  25
##########                    Molecular_Weight:              407.35
##########                DOCK_Rotatable_Bonds:                   5
##########                       Formal_Charge:           0.0200004
##########                     HBond_Acceptors:                   4
##########                        HBond_Donors:                   0
##########                         Heavy_Atoms:                  25
##########                          Grid_Score:          -27.071400
##########                     Grid_vdw_energy:          -26.414377
##########                      Grid_es_energy:           -0.657023
##########           Internal_energy_repulsive:           21.089825

@<TRIPOS>MOLECULE
ZINC000463474628
 52 54 1 0 0
SMALL
USER_CHARGES


@<TRIPOS>ATOM
      1 C1        -11.1238    2.5092   62.2970 C.3     1  ZINC000463474628   -0.1400
      2 C2        -11.4623    1.6225   61.0970 C.3     1  ZINC000463474628   -0.1300
      3 C3        -11.3860    0.1518   61.5118 C.3     1  ZINC000463474628    0.1400
      4 H4        -12.0798   -0.0387   62.3306 H       1  ZINC000463474628    0.0800
      5 C5         -9.9479   -0.1956   61.9509 C.3     1  ZINC000463474628   -0.1300
      6 C6         -9.7484   -1.6270   61.3863 C.3     1  ZINC000463474628   -0.1300
      7 C7        -10.5417   -1.5507   60.0580 C.3     1  ZINC000463474628    0.0900
      8 N8        -11.7160   -0.7087   60.3662 N.am    1  ZINC000463474628   -0.6100
      9 C9        -12.8905   -0.7266   59.7057 C.2     1  ZINC000463474628    0.5300
     10 O10       -13.7898    0.0121   60.0474 O.2     1  ZINC000463474628   -0.5100
     11 C11       -13.0867   -1.6644   58.5425 C.3     1  ZINC000463474628   -0.1200
     12 H12       -12.6917   -2.6478   58.7974 H       1  ZINC000463474628    0.1000
     13 C13       -12.3491   -1.1197   57.3172 C.3     1  ZINC000463474628   -0.1000
     14 C14       -12.5203   -2.0878   56.1444 C.3     1  ZINC000463474628   -0.1300
     15 C15       -14.0081   -2.2076   55.7993 C.3     1  ZINC000463474628    0.0900
     16 N16       -14.7451   -2.5912   57.0111 N.am    1  ZINC000463474628   -0.6000
     17 C17       -15.5564   -3.6674   57.0095 C.2     1  ZINC000463474628    0.5700
     18 O18       -16.1607   -3.9745   58.0186 O.2     1  ZINC000463474628   -0.5200
     19 C19       -15.7113   -4.4743   55.7810 C.ar    1  ZINC000463474628   -0.1200
     20 C20       -16.5380   -4.0275   54.7488 C.ar    1  ZINC000463474628   -0.0800
     21 C21       -16.6786   -4.7849   53.6047 C.ar    1  ZINC000463474628   -0.1000
     22 C22       -16.0018   -5.9863   53.4789 C.ar    1  ZINC000463474628   -0.0700
     23 Br23      -16.1996   -7.0183   51.9068 Br      1  ZINC000463474628   -0.0400
     24 C24       -15.1801   -6.4349   54.4996 C.ar    1  ZINC000463474628   -0.0900
     25 C25       -15.0270   -5.6838   55.6457 C.ar    1  ZINC000463474628   -0.0300
     26 C26       -14.1327   -6.1734   56.7554 C.3     1  ZINC000463474628   -0.1300
     27 C27       -14.5809   -1.7800   58.2252 C.3     1  ZINC000463474628    0.1200
     28 H28       -12.0133    2.6428   62.9125 H       1  ZINC000463474628    0.0700
     29 H29       -10.3403    2.0359   62.8888 H       1  ZINC000463474628    0.0600
     30 H30       -10.7765    3.4804   61.9446 H       1  ZINC000463474628    0.0300
     31 H31       -12.4702    1.8503   60.7499 H       1  ZINC000463474628    0.0600
     32 H32       -10.7502    1.8108   60.2936 H       1  ZINC000463474628    0.0700
     33 H33        -9.2317    0.4967   61.5085 H       1  ZINC000463474628    0.0800
     34 H34        -9.8657   -0.1949   63.0378 H       1  ZINC000463474628    0.0800
     35 H35        -8.6938   -1.8302   61.2005 H       1  ZINC000463474628    0.0900
     36 H36       -10.1767   -2.3739   62.0548 H       1  ZINC000463474628    0.0800
     37 H37        -9.9351   -1.0876   59.2799 H       1  ZINC000463474628    0.0700
     38 H38       -10.8611   -2.5461   59.7492 H       1  ZINC000463474628    0.0800
     39 H39       -12.7608   -0.1470   57.0482 H       1  ZINC000463474628    0.0800
     40 H40       -11.2892   -1.0137   57.5487 H       1  ZINC000463474628    0.0700
     41 H41       -11.9753   -1.7109   55.2789 H       1  ZINC000463474628    0.0800
     42 H42       -12.1311   -3.0675   56.4216 H       1  ZINC000463474628    0.0700
     43 H43       -14.3771   -1.2488   55.4354 H       1  ZINC000463474628    0.0800
     44 H44       -14.1450   -2.9694   55.0319 H       1  ZINC000463474628    0.1000
     45 H45       -17.0668   -3.0908   54.8459 H       1  ZINC000463474628    0.1400
     46 H46       -17.3182   -4.4405   52.8055 H       1  ZINC000463474628    0.1400
     47 H47       -14.6550   -7.3730   54.3958 H       1  ZINC000463474628    0.1400
     48 H48       -13.1439   -5.7272   56.6489 H       1  ZINC000463474628    0.0700
     49 H49       -14.5581   -5.8883   57.7176 H       1  ZINC000463474628    0.0900
     50 H50       -14.0489   -7.2590   56.7025 H       1  ZINC000463474628    0.0700
     51 H51       -15.0960   -2.2596   59.0576 H       1  ZINC000463474628    0.1000
     52 H52       -14.9965   -0.7860   58.0594 H       1  ZINC000463474628    0.0800
@<TRIPOS>BOND
     1     1     2    1
     2     1    28    1
     3     1    29    1
     4     1    30    1
     5     2     3    1
     6     2    31    1
     7     2    32    1
     8     3     4    1
     9     3     8    1
    10     3     5    1
    11     5     6    1
    12     5    33    1
    13     5    34    1
    14     6     7    1
    15     6    35    1
    16     6    36    1
    17     7     8    1
    18     7    37    1
    19     7    38    1
    20     8     9   am
    21     9    10    2
    22     9    11    1
    23    11    12    1
    24    11    27    1
    25    11    13    1
    26    13    14    1
    27    13    39    1
    28    13    40    1
    29    14    15    1
    30    14    41    1
    31    14    42    1
    32    15    16    1
    33    15    43    1
    34    15    44    1
    35    16    17   am
    36    16    27    1
    37    17    18    2
    38    17    19    1
    39    19    25   ar
    40    19    20   ar
    41    20    21   ar
    42    20    45    1
    43    21    22   ar
    44    21    46    1
    45    22    23    1
    46    22    24   ar
    47    24    25   ar
    48    24    47    1
    49    25    26    1
    50    26    48    1
    51    26    49    1
    52    26    50    1
    53    27    51    1
    54    27    52    1
@<TRIPOS>SUBSTRUCTURE
     1 ZINC000463474628        1 TEMP              0 ****  ****    0 ROOT


##########                                Name:    ZINC000409064708
##########                DOCK_Rotatable_Bonds:                   8
##########                         Heavy_Atoms:                  29
##########                    Molecular_Weight:             415.442
##########                DOCK_Rotatable_Bonds:                   8
##########                       Formal_Charge:                0.03
##########                     HBond_Acceptors:                   8
##########                        HBond_Donors:                   0
##########                         Heavy_Atoms:                  29
##########                          Grid_Score:          -27.070648
##########                     Grid_vdw_energy:          -27.119825
##########                      Grid_es_energy:            0.049177
##########           Internal_energy_repulsive:           25.721310

@<TRIPOS>MOLECULE
ZINC000409064708
 47 49 1 0 0
SMALL
USER_CHARGES


@<TRIPOS>ATOM
      1 C1          2.7471    1.2749   46.5463 C.3     1  ZINC000409064708    0.0400
      2 O2          2.0074    0.1064   46.1036 O.3     1  ZINC000409064708   -0.3500
      3 C3          0.7420    0.3027   45.7012 C.2     1  ZINC000409064708    0.4600
      4 O4          0.1008   -0.6181   45.2530 O.2     1  ZINC000409064708   -0.4900
      5 C5          0.1210    1.6716   45.8084 C.3     1  ZINC000409064708    0.1400
      6 H6          0.8470    2.4249   45.5022 H       1  ZINC000409064708    0.1500
      7 C7         -1.1070    1.7473   44.8991 C.3     1  ZINC000409064708   -0.1600
      8 N8         -0.2823    1.9176   47.1952 N.am    1  ZINC000409064708   -0.5600
      9 C9         -1.0315    1.0217   47.8481 C.2     1  ZINC000409064708    0.5400
     10 O10        -1.4446   -0.0347   47.4090 O.2     1  ZINC000409064708   -0.4200
     11 S11        -1.3061    1.6682   49.4752 S.3     1  ZINC000409064708   -0.0100
     12 C12        -0.3759    3.1538   49.1960 C.2     1  ZINC000409064708   -0.2400
     13 C13        -0.1491    4.1723   50.0637 C.2     1  ZINC000409064708    0.0900
     14 C14        -0.7060    4.1179   51.4214 C.ar    1  ZINC000409064708   -0.1400
     15 C15        -2.0861    4.2477   51.6205 C.ar    1  ZINC000409064708    0.0000
     16 C16        -2.6028    4.1960   52.8955 C.ar    1  ZINC000409064708   -0.1600
     17 C17        -1.7572    4.0158   53.9841 C.ar    1  ZINC000409064708    0.1600
     18 O18        -2.2722    3.9655   55.2393 O.3     1  ZINC000409064708   -0.3000
     19 C19        -1.3467    3.7887   56.3137 C.3     1  ZINC000409064708    0.1000
     20 C20        -2.0964    3.7424   57.6201 C.ar    1  ZINC000409064708   -0.0700
     21 C21        -3.2842    4.4352   57.7599 C.ar    1  ZINC000409064708   -0.1000
     22 C22        -3.9731    4.3937   58.9580 C.ar    1  ZINC000409064708   -0.0900
     23 C23        -3.4748    3.6593   60.0170 C.ar    1  ZINC000409064708   -0.1400
     24 C24        -2.2851    2.9643   59.8780 C.ar    1  ZINC000409064708    0.1000
     25 F25        -1.7968    2.2459   60.9128 F       1  ZINC000409064708   -0.1400
     26 C26        -1.5989    3.0024   58.6763 C.ar    1  ZINC000409064708   -0.1300
     27 C27        -0.3866    3.8865   53.7923 C.ar    1  ZINC000409064708   -0.2200
     28 C28         0.1403    3.9304   52.5212 C.ar    1  ZINC000409064708   -0.0400
     29 C29         0.0961    3.0243   47.8127 C.2     1  ZINC000409064708    0.5600
     30 O30         0.7787    3.8746   47.2720 O.2     1  ZINC000409064708   -0.4600
     31 H31         2.8074    1.9968   45.7317 H       1  ZINC000409064708    0.0700
     32 H32         2.2363    1.7278   47.3960 H       1  ZINC000409064708    0.0700
     33 H33         3.7527    0.9773   46.8432 H       1  ZINC000409064708    0.1100
     34 H34        -0.8070    1.5643   43.8673 H       1  ZINC000409064708    0.1000
     35 H35        -1.8329    0.9940   45.2053 H       1  ZINC000409064708    0.0800
     36 H36        -1.5562    2.7374   44.9767 H       1  ZINC000409064708    0.0800
     37 H37         0.4409    5.0229   49.7558 H       1  ZINC000409064708    0.1600
     38 H38        -2.7437    4.3884   50.7755 H       1  ZINC000409064708    0.1300
     39 H39        -3.6669    4.2958   53.0502 H       1  ZINC000409064708    0.1400
     40 H40        -0.8020    2.8550   56.1740 H       1  ZINC000409064708    0.0800
     41 H41        -0.6432    4.6212   56.3278 H       1  ZINC000409064708    0.0800
     42 H42        -3.6742    5.0098   56.9329 H       1  ZINC000409064708    0.1300
     43 H43        -4.9009    4.9358   59.0663 H       1  ZINC000409064708    0.1400
     44 H44        -4.0127    3.6275   60.9531 H       1  ZINC000409064708    0.1400
     45 H45        -0.6711    2.4605   58.5665 H       1  ZINC000409064708    0.1400
     46 H46         0.2657    3.7470   54.6416 H       1  ZINC000409064708    0.1300
     47 H47         1.2054    3.8298   52.3732 H       1  ZINC000409064708    0.1300
@<TRIPOS>BOND
     1     1     2    1
     2     1    31    1
     3     1    32    1
     4     1    33    1
     5     2     3    1
     6     3     4    2
     7     3     5    1
     8     5     6    1
     9     5     7    1
    10     5     8    1
    11     7    34    1
    12     7    35    1
    13     7    36    1
    14     8    29   am
    15     8     9   am
    16     9    10    2
    17     9    11    1
    18    11    12    1
    19    12    13    2
    20    12    29    1
    21    13    14    1
    22    13    37    1
    23    14    28   ar
    24    14    15   ar
    25    15    16   ar
    26    15    38    1
    27    16    17   ar
    28    16    39    1
    29    17    18    1
    30    17    27   ar
    31    18    19    1
    32    19    20    1
    33    19    40    1
    34    19    41    1
    35    20    26   ar
    36    20    21   ar
    37    21    22   ar
    38    21    42    1
    39    22    23   ar
    40    22    43    1
    41    23    24   ar
    42    23    44    1
    43    24    25    1
    44    24    26   ar
    45    26    45    1
    46    27    28   ar
    47    27    46    1
    48    28    47    1
    49    29    30    2
@<TRIPOS>SUBSTRUCTURE
     1 ZINC000409064708        1 TEMP              0 ****  ****    0 ROOT


##########                                Name:    ZINC000426037318
##########                DOCK_Rotatable_Bonds:                   7
##########                         Heavy_Atoms:                  28
##########                    Molecular_Weight:             421.904
##########                DOCK_Rotatable_Bonds:                   7
##########                       Formal_Charge:         -0.00999981
##########                     HBond_Acceptors:                   9
##########                        HBond_Donors:                   1
##########                         Heavy_Atoms:                  28
##########                          Grid_Score:          -27.048927
##########                     Grid_vdw_energy:          -26.631332
##########                      Grid_es_energy:           -0.417594
##########           Internal_energy_repulsive:           18.916430

@<TRIPOS>MOLECULE
ZINC000426037318
 48 50 1 0 0
SMALL
USER_CHARGES


@<TRIPOS>ATOM
      1 C1        -17.3483   -2.8479   60.0491 C.3     1  ZINC000426037318    0.0300
      2 O2        -16.2878   -3.5942   60.6494 O.3     1  ZINC000426037318   -0.3800
      3 C3        -15.6317   -2.9131   61.7206 C.3     1  ZINC000426037318    0.1300
      4 C4        -14.4197   -2.1918   61.1899 C.ar    1  ZINC000426037318    0.3900
      5 N5        -13.7262   -1.4206   62.0079 N.ar    1  ZINC000426037318   -0.5700
      6 C6        -12.6547   -0.7662   61.5930 C.ar    1  ZINC000426037318    0.4400
      7 O7        -11.9563    0.0191   62.4457 O.3     1  ZINC000426037318   -0.2800
      8 C8        -12.6873    0.6323   63.5094 C.3     1  ZINC000426037318    0.0300
      9 C9        -12.2475   -0.9005   60.2382 C.ar    1  ZINC000426037318   -0.2000
     10 C10       -11.1666   -0.3227   59.5624 C.2     1  ZINC000426037318    0.0500
     11 C11       -10.1964    0.6075   60.2440 C.3     1  ZINC000426037318   -0.1200
     12 C12       -11.0523   -0.6522   58.2700 C.2     1  ZINC000426037318   -0.2700
     13 C13        -9.9966   -0.1638   57.3740 C.2     1  ZINC000426037318    0.6000
     14 O14        -8.8574   -0.5740   57.4957 O.2     1  ZINC000426037318   -0.5000
     15 N15       -10.2893    0.7388   56.4169 N.am    1  ZINC000426037318   -0.6600
     16 C16        -9.2821    1.2047   55.5621 C.ar    1  ZINC000426037318    0.1200
     17 C17        -9.0659    0.5832   54.3400 C.ar    1  ZINC000426037318   -0.0700
     18 C18        -8.0728    1.0435   53.4973 C.ar    1  ZINC000426037318   -0.0900
     19 C19        -7.8387    0.3688   52.1703 C.3     1  ZINC000426037318   -0.1100
     20 C20        -7.2913    2.1264   53.8717 C.ar    1  ZINC000426037318    0.1300
     21 O21        -6.3144    2.5788   53.0412 O.3     1  ZINC000426037318   -0.3100
     22 C22        -5.5615    3.7108   53.4811 C.3     1  ZINC000426037318    0.0200
     23 C23        -7.5060    2.7488   55.0930 C.ar    1  ZINC000426037318   -0.1800
     24 C24        -8.5022    2.2933   55.9348 C.ar    1  ZINC000426037318   -0.0300
     25 Cl25       -8.7716    3.0721   57.4628 Cl      1  ZINC000426037318   -0.0600
     26 S26       -12.3375   -1.7488   57.7937 S.3     1  ZINC000426037318    0.2200
     27 C27       -13.0201   -1.7317   59.4142 C.ar    1  ZINC000426037318    0.1300
     28 N28       -14.0847   -2.3550   59.9306 N.ar    1  ZINC000426037318   -0.5000
     29 H29       -17.7949   -3.4334   59.2454 H       1  ZINC000426037318    0.0900
     30 H30       -18.1060   -2.6247   60.8003 H       1  ZINC000426037318    0.0500
     31 H31       -16.9531   -1.9164   59.6438 H       1  ZINC000426037318    0.0500
     32 H32       -16.3169   -2.1925   62.1669 H       1  ZINC000426037318    0.0900
     33 H33       -15.3225   -3.6361   62.4755 H       1  ZINC000426037318    0.0800
     34 H34       -13.1434   -0.1396   64.1292 H       1  ZINC000426037318    0.0700
     35 H35       -12.0102    1.2328   64.1168 H       1  ZINC000426037318    0.1100
     36 H36       -13.4662    1.2717   63.0937 H       1  ZINC000426037318    0.0700
     37 H37        -9.3735    0.0296   60.6646 H       1  ZINC000426037318    0.0900
     38 H38        -9.8059    1.3207   59.5181 H       1  ZINC000426037318    0.1000
     39 H39       -10.7082    1.1450   61.0423 H       1  ZINC000426037318    0.0800
     40 H40       -11.1974    1.0657   56.3199 H       1  ZINC000426037318    0.4100
     41 H41        -9.6739   -0.2603   54.0481 H       1  ZINC000426037318    0.1600
     42 H42        -8.4543    0.8448   51.4071 H       1  ZINC000426037318    0.0700
     43 H43        -6.7873    0.4590   51.8974 H       1  ZINC000426037318    0.0700
     44 H44        -8.1051   -0.6853   52.2466 H       1  ZINC000426037318    0.0700
     45 H45        -6.2322    4.5567   53.6322 H       1  ZINC000426037318    0.0600
     46 H46        -5.0608    3.4720   54.4193 H       1  ZINC000426037318    0.0600
     47 H47        -4.8173    3.9675   52.7272 H       1  ZINC000426037318    0.1000
     48 H48        -6.8970    3.5920   55.3838 H       1  ZINC000426037318    0.1500
@<TRIPOS>BOND
     1     1     2    1
     2     1    29    1
     3     1    30    1
     4     1    31    1
     5     2     3    1
     6     3     4    1
     7     3    32    1
     8     3    33    1
     9     4    28   ar
    10     4     5   ar
    11     5     6   ar
    12     6     7    1
    13     6     9   ar
    14     7     8    1
    15     8    34    1
    16     8    35    1
    17     8    36    1
    18     9    27   ar
    19     9    10    1
    20    10    11    1
    21    10    12    2
    22    11    37    1
    23    11    38    1
    24    11    39    1
    25    12    13    1
    26    12    26    1
    27    13    14    2
    28    13    15   am
    29    15    16    1
    30    15    40    1
    31    16    24   ar
    32    16    17   ar
    33    17    18   ar
    34    17    41    1
    35    18    19    1
    36    18    20   ar
    37    19    42    1
    38    19    43    1
    39    19    44    1
    40    20    21    1
    41    20    23   ar
    42    21    22    1
    43    22    45    1
    44    22    46    1
    45    22    47    1
    46    23    24   ar
    47    23    48    1
    48    24    25    1
    49    26    27    1
    50    27    28   ar
@<TRIPOS>SUBSTRUCTURE
     1 ZINC000426037318        1 TEMP              0 ****  ****    0 ROOT


##########                                Name:    ZINC001199210165
##########                DOCK_Rotatable_Bonds:                   5
##########                         Heavy_Atoms:                  23
##########                    Molecular_Weight:             375.225
##########                DOCK_Rotatable_Bonds:                   5
##########                       Formal_Charge:         -0.00999999
##########                     HBond_Acceptors:                   6
##########                        HBond_Donors:                   2
##########                         Heavy_Atoms:                  23
##########                          Grid_Score:          -27.028641
##########                     Grid_vdw_energy:          -26.168018
##########                      Grid_es_energy:           -0.860622
##########           Internal_energy_repulsive:           13.851122

@<TRIPOS>MOLECULE
ZINC001199210165
 38 40 1 0 0
SMALL
USER_CHARGES


@<TRIPOS>ATOM
      1 C1        -15.1574   -3.8386   57.4254 C.3     1  ZINC001199210165   -0.1700
      2 C2        -14.1122   -4.9358   57.2149 C.3     1  ZINC001199210165    0.0800
      3 C3        -14.7826   -6.1689   56.6058 C.3     1  ZINC001199210165   -0.1500
      4 O4        -13.0948   -4.4612   56.3306 O.3     1  ZINC001199210165   -0.3000
      5 C5        -12.3047   -3.4555   56.7839 C.ar    1  ZINC001199210165    0.3300
      6 C6        -12.1796   -3.2437   58.1503 C.ar    1  ZINC001199210165   -0.1300
      7 C7        -11.3630   -2.2048   58.6012 C.ar    1  ZINC001199210165   -0.0600
      8 C8        -11.1981   -1.9408   60.0494 C.2     1  ZINC001199210165    0.5700
      9 O9        -11.5755   -2.7605   60.8633 O.2     1  ZINC001199210165   -0.4900
     10 N10       -10.6297   -0.7914   60.4644 N.am    1  ZINC001199210165   -0.6600
     11 C11       -10.4740   -0.5422   61.8313 C.ar    1  ZINC001199210165    0.2000
     12 C12        -9.4253   -1.1426   62.5296 C.ar    1  ZINC001199210165   -0.1500
     13 C13        -9.2578   -0.9109   63.8626 C.ar    1  ZINC001199210165   -0.0200
     14 C14       -10.1428   -0.0644   64.5398 C.ar    1  ZINC001199210165   -0.1700
     15 C15       -10.2511    0.3877   65.9240 C.2     1  ZINC001199210165    0.0900
     16 Br16       -9.1018   -0.0935   67.3465 Br      1  ZINC001199210165    0.0600
     17 N17       -11.2805    1.1821   66.0039 N.2     1  ZINC001199210165   -0.2100
     18 N18       -11.8910    1.3051   64.7516 N.pl3   1  ZINC001199210165   -0.4900
     19 C19       -11.2035    0.5450   63.8412 C.ar    1  ZINC001199210165    0.1500
     20 C20       -11.3569    0.3018   62.4797 C.ar    1  ZINC001199210165   -0.1700
     21 C21       -10.7040   -1.4200   57.6482 C.ar    1  ZINC001199210165   -0.1900
     22 C22       -10.8832   -1.6984   56.3084 C.ar    1  ZINC001199210165    0.1400
     23 N23       -11.6586   -2.6919   55.9194 N.ar    1  ZINC001199210165   -0.5200
     24 H24       -15.6038   -3.5733   56.4670 H       1  ZINC001199210165    0.0600
     25 H25       -15.9334   -4.2006   58.0999 H       1  ZINC001199210165    0.0700
     26 H26       -14.6798   -2.9601   57.8592 H       1  ZINC001199210165    0.0600
     27 H27       -13.6657   -5.2011   58.1732 H       1  ZINC001199210165    0.0900
     28 H28       -15.2290   -5.9036   55.6474 H       1  ZINC001199210165    0.0700
     29 H29       -14.0379   -6.9506   56.4559 H       1  ZINC001199210165    0.0600
     30 H30       -15.5586   -6.5309   57.2803 H       1  ZINC001199210165    0.0800
     31 H31       -12.7060   -3.8724   58.8533 H       1  ZINC001199210165    0.1600
     32 H32       -10.3284   -0.1371   59.8147 H       1  ZINC001199210165    0.4100
     33 H33        -8.7409   -1.7967   62.0098 H       1  ZINC001199210165    0.1500
     34 H34        -8.4436   -1.3801   64.3952 H       1  ZINC001199210165    0.1400
     35 H35       -12.6751    1.8424   64.5582 H       1  ZINC001199210165    0.4500
     36 H36       -12.1634    0.7675   61.9329 H       1  ZINC001199210165    0.1400
     37 H37       -10.0638   -0.6069   57.9571 H       1  ZINC001199210165    0.1400
     38 H38       -10.3780   -1.0965   55.5676 H       1  ZINC001199210165    0.1700
@<TRIPOS>BOND
     1     1     2    1
     2     1    24    1
     3     1    25    1
     4     1    26    1
     5     2     3    1
     6     2     4    1
     7     2    27    1
     8     3    28    1
     9     3    29    1
    10     3    30    1
    11     4     5    1
    12     5    23   ar
    13     5     6   ar
    14     6     7   ar
    15     6    31    1
    16     7     8    1
    17     7    21   ar
    18     8     9    2
    19     8    10   am
    20    10    11    1
    21    10    32    1
    22    11    20   ar
    23    11    12   ar
    24    12    13   ar
    25    12    33    1
    26    13    14   ar
    27    13    34    1
    28    14    19   ar
    29    14    15    1
    30    15    16    1
    31    15    17    2
    32    17    18    1
    33    18    19    1
    34    18    35    1
    35    19    20   ar
    36    20    36    1
    37    21    22   ar
    38    21    37    1
    39    22    23   ar
    40    22    38    1
@<TRIPOS>SUBSTRUCTURE
     1 ZINC001199210165        1 TEMP              0 ****  ****    0 ROOT


##########                                Name:    ZINC000076573199
##########                DOCK_Rotatable_Bonds:                  10
##########                         Heavy_Atoms:                  24
##########                    Molecular_Weight:             333.431
##########                DOCK_Rotatable_Bonds:                  10
##########                       Formal_Charge:          -0.0200009
##########                     HBond_Acceptors:                   6
##########                        HBond_Donors:                   3
##########                         Heavy_Atoms:                  24
##########                          Grid_Score:          -27.018280
##########                     Grid_vdw_energy:          -26.578594
##########                      Grid_es_energy:           -0.439685
##########           Internal_energy_repulsive:           17.671503

@<TRIPOS>MOLECULE
ZINC000076573199
 51 51 1 0 0
SMALL
USER_CHARGES


@<TRIPOS>ATOM
      1 C1        -13.7614    0.4917   61.7304 C.3     1  ZINC000076573199   -0.1500
      2 C2        -12.5802   -0.0865   60.9483 C.3     1  ZINC000076573199   -0.1200
      3 C3        -11.5982   -0.7442   61.9199 C.3     1  ZINC000076573199   -0.1000
      4 H4        -12.0829   -0.8862   62.8858 H       1  ZINC000076573199    0.0700
      5 C5        -10.3719    0.1544   62.0918 C.3     1  ZINC000076573199   -0.1500
      6 C6        -11.1621   -2.1012   61.3637 C.3     1  ZINC000076573199   -0.1200
      7 C7        -10.6168   -1.9197   59.9458 C.3     1  ZINC000076573199    0.1400
      8 H8        -10.6684   -0.8669   59.6685 H       1  ZINC000076573199    0.1000
      9 C9         -9.1616   -2.3896   59.8950 C.3     1  ZINC000076573199   -0.1700
     10 N10       -11.4185   -2.7112   59.0092 N.am    1  ZINC000076573199   -0.6900
     11 C11       -11.3291   -2.4811   57.6842 C.2     1  ZINC000076573199    0.5100
     12 O12       -10.5856   -1.6173   57.2670 O.2     1  ZINC000076573199   -0.5100
     13 C13       -12.1450   -3.2892   56.7293 C.2     1  ZINC000076573199    0.5100
     14 O14       -11.7951   -3.3966   55.5719 O.2     1  ZINC000076573199   -0.5000
     15 N15       -13.2699   -3.8990   57.1525 N.am    1  ZINC000076573199   -0.6400
     16 C16       -14.0333   -4.6550   56.2592 C.ar    1  ZINC000076573199    0.1500
     17 C17       -14.1829   -6.0224   56.4561 C.ar    1  ZINC000076573199   -0.1300
     18 C18       -14.9380   -6.7702   55.5732 C.ar    1  ZINC000076573199   -0.0800
     19 C19       -15.5465   -6.1618   54.4924 C.ar    1  ZINC000076573199   -0.1200
     20 C20       -16.3695   -6.9815   53.5323 C.3     1  ZINC000076573199   -0.1100
     21 C21       -15.4008   -4.7949   54.2897 C.ar    1  ZINC000076573199    0.1600
     22 N22       -16.0175   -4.1797   53.1947 N.am    1  ZINC000076573199   -0.6700
     23 C23       -16.9787   -3.2562   53.3938 C.2     1  ZINC000076573199    0.5100
     24 C24       -17.6430   -2.5935   52.2146 C.3     1  ZINC000076573199   -0.1700
     25 O25       -17.3092   -2.9583   54.5221 O.2     1  ZINC000076573199   -0.5200
     26 C26       -14.6478   -4.0400   55.1769 C.ar    1  ZINC000076573199   -0.1400
     27 H27       -13.3982    1.2359   62.4392 H       1  ZINC000076573199    0.0600
     28 H28       -14.4609    0.9602   61.0382 H       1  ZINC000076573199    0.0500
     29 H29       -14.2661   -0.3089   62.2709 H       1  ZINC000076573199    0.0500
     30 H30       -12.9433   -0.8307   60.2395 H       1  ZINC000076573199    0.0600
     31 H31       -12.0754    0.7142   60.4079 H       1  ZINC000076573199    0.0600
     32 H32        -9.8403    0.2291   61.1432 H       1  ZINC000076573199    0.0600
     33 H33       -10.6907    1.1474   62.4088 H       1  ZINC000076573199    0.0600
     34 H34        -9.7111   -0.2730   62.8459 H       1  ZINC000076573199    0.0500
     35 H35       -10.3844   -2.5221   62.0009 H       1  ZINC000076573199    0.0800
     36 H36       -12.0176   -2.7762   61.3404 H       1  ZINC000076573199    0.0700
     37 H37        -8.7730   -2.2603   58.8848 H       1  ZINC000076573199    0.0600
     38 H38        -8.5650   -1.8008   60.5918 H       1  ZINC000076573199    0.0700
     39 H39        -9.1099   -3.4426   60.1722 H       1  ZINC000076573199    0.0600
     40 H40       -12.0136   -3.4008   59.3426 H       1  ZINC000076573199    0.4100
     41 H41       -13.5495   -3.8132   58.0774 H       1  ZINC000076573199    0.4200
     42 H42       -13.7082   -6.5010   57.2998 H       1  ZINC000076573199    0.1400
     43 H43       -15.0525   -7.8329   55.7281 H       1  ZINC000076573199    0.1300
     44 H44       -17.4055   -7.0051   53.8703 H       1  ZINC000076573199    0.0700
     45 H45       -16.3214   -6.5347   52.5393 H       1  ZINC000076573199    0.0600
     46 H46       -15.9769   -7.9976   53.4929 H       1  ZINC000076573199    0.0700
     47 H47       -15.7533   -4.4178   52.2923 H       1  ZINC000076573199    0.4100
     48 H48       -18.1286   -3.3504   51.5985 H       1  ZINC000076573199    0.0900
     49 H49       -18.3880   -1.8816   52.5698 H       1  ZINC000076573199    0.1000
     50 H50       -16.8929   -2.0695   51.6222 H       1  ZINC000076573199    0.0900
     51 H51       -14.5332   -2.9773   55.0215 H       1  ZINC000076573199    0.1400
@<TRIPOS>BOND
     1     1     2    1
     2     1    27    1
     3     1    28    1
     4     1    29    1
     5     2     3    1
     6     2    30    1
     7     2    31    1
     8     3     4    1
     9     3     5    1
    10     3     6    1
    11     5    32    1
    12     5    33    1
    13     5    34    1
    14     6     7    1
    15     6    35    1
    16     6    36    1
    17     7     8    1
    18     7     9    1
    19     7    10    1
    20     9    37    1
    21     9    38    1
    22     9    39    1
    23    10    11   am
    24    10    40    1
    25    11    12    2
    26    11    13    1
    27    13    14    2
    28    13    15   am
    29    15    16    1
    30    15    41    1
    31    16    26   ar
    32    16    17   ar
    33    17    18   ar
    34    17    42    1
    35    18    19   ar
    36    18    43    1
    37    19    20    1
    38    19    21   ar
    39    20    44    1
    40    20    45    1
    41    20    46    1
    42    21    22    1
    43    21    26   ar
    44    22    23   am
    45    22    47    1
    46    23    24    1
    47    23    25    2
    48    24    48    1
    49    24    49    1
    50    24    50    1
    51    26    51    1
@<TRIPOS>SUBSTRUCTURE
     1 ZINC000076573199        1 TEMP              0 ****  ****    0 ROOT


##########                                Name:    ZINC000371438955
##########                DOCK_Rotatable_Bonds:                   4
##########                         Heavy_Atoms:                  25
##########                    Molecular_Weight:             387.499
##########                DOCK_Rotatable_Bonds:                   4
##########                       Formal_Charge:          -0.0299995
##########                     HBond_Acceptors:                   9
##########                        HBond_Donors:                   1
##########                         Heavy_Atoms:                  25
##########                          Grid_Score:          -27.013157
##########                     Grid_vdw_energy:          -27.063231
##########                      Grid_es_energy:            0.050073
##########           Internal_energy_repulsive:           19.081802

@<TRIPOS>MOLECULE
ZINC000371438955
 47 49 1 0 0
SMALL
USER_CHARGES


@<TRIPOS>ATOM
      1 C1        -10.2957   -0.4803   63.1803 C.3     1  ZINC000371438955   -0.6800
      2 S2        -10.8026   -0.1655   61.4673 S.o2    1  ZINC000371438955    2.6000
      3 O3        -12.0293    0.5510   61.4340 O.2     1  ZINC000371438955   -0.9500
      4 O4         -9.6903    0.2494   60.6863 O.2     1  ZINC000371438955   -0.9500
      5 N5        -11.1869   -1.6610   60.8686 N.am    1  ZINC000371438955   -0.9900
      6 C6        -10.1763   -2.6790   60.8428 C.3     1  ZINC000371438955    0.1300
      7 C7         -9.3810   -2.5249   59.5355 C.3     1  ZINC000371438955   -0.1700
      8 C8        -10.1069   -3.0838   58.3841 C.3     1  ZINC000371438955    0.1400
      9 N9        -11.4235   -2.4201   58.2335 N.am    1  ZINC000371438955   -0.6200
     10 C10       -11.5984   -1.4788   57.2847 C.2     1  ZINC000371438955    0.7100
     11 O11       -12.6782   -0.9340   57.1606 O.2     1  ZINC000371438955   -0.5800
     12 N12       -10.5762   -1.1416   56.4736 N.am    1  ZINC000371438955   -0.7400
     13 C13       -10.7663   -0.1186   55.4423 C.3     1  ZINC000371438955    0.2000
     14 H14       -11.5492    0.5652   55.7705 H       1  ZINC000371438955    0.1100
     15 C15       -11.2194   -0.7976   54.1616 C.3     1  ZINC000371438955   -0.1300
     16 C16       -11.4599    0.2725   53.0874 C.3     1  ZINC000371438955   -0.1100
     17 S17        -9.8335    0.8858   52.5613 S.3     1  ZINC000371438955   -0.1000
     18 C18        -9.0062    1.1517   54.0971 C.ar    1  ZINC000371438955   -0.1100
     19 C19        -7.8216    1.8934   54.0775 C.ar    1  ZINC000371438955    0.1100
     20 F20        -7.3586    2.3849   52.9073 F       1  ZINC000371438955   -0.1300
     21 C21        -7.1213    2.1285   55.2424 C.ar    1  ZINC000371438955   -0.1300
     22 C22        -7.5979    1.6207   56.4377 C.ar    1  ZINC000371438955   -0.1000
     23 C23        -8.7668    0.8918   56.4597 C.ar    1  ZINC000371438955   -0.1000
     24 C24        -9.4882    0.6525   55.2895 C.ar    1  ZINC000371438955   -0.0800
     25 C25       -12.5132   -2.7793   59.0973 C.3     1  ZINC000371438955    0.1000
     26 C26       -12.5712   -1.9076   60.3803 C.3     1  ZINC000371438955    0.0900
     27 H27       -11.1217   -0.9371   63.7256 H       1  ZINC000371438955    0.1300
     28 H28        -9.4389   -1.1540   63.1878 H       1  ZINC000371438955    0.1300
     29 H29       -10.0220    0.4609   63.6570 H       1  ZINC000371438955    0.1300
     30 H30        -9.5093   -2.5579   61.6964 H       1  ZINC000371438955    0.0800
     31 H31       -10.6436   -3.6631   60.8761 H       1  ZINC000371438955    0.0800
     32 H32        -9.1932   -1.4662   59.3569 H       1  ZINC000371438955    0.0800
     33 H33        -8.4263   -3.0410   59.6378 H       1  ZINC000371438955    0.0900
     34 H34        -9.5199   -2.9304   57.4786 H       1  ZINC000371438955    0.0900
     35 H35       -10.2571   -4.1526   58.5367 H       1  ZINC000371438955    0.0700
     36 H36        -9.7148   -1.5763   56.5726 H       1  ZINC000371438955    0.4000
     37 H37       -10.4474   -1.4883   53.8221 H       1  ZINC000371438955    0.0900
     38 H38       -12.1443   -1.3440   54.3459 H       1  ZINC000371438955    0.1000
     39 H39       -11.9834   -0.1660   52.2379 H       1  ZINC000371438955    0.1200
     40 H40       -12.0477    1.0906   53.5042 H       1  ZINC000371438955    0.1000
     41 H41        -6.2079    2.7042   55.2215 H       1  ZINC000371438955    0.1400
     42 H42        -7.0533    1.7953   57.3538 H       1  ZINC000371438955    0.1300
     43 H43        -9.1296    0.4981   57.3976 H       1  ZINC000371438955    0.1400
     44 H44       -13.4492   -2.6649   58.5504 H       1  ZINC000371438955    0.0800
     45 H45       -12.4027   -3.8237   59.3887 H       1  ZINC000371438955    0.0900
     46 H46       -13.1462   -2.4270   61.1469 H       1  ZINC000371438955    0.0800
     47 H47       -13.0483   -0.9547   60.1510 H       1  ZINC000371438955    0.1000
@<TRIPOS>BOND
     1     1     2    1
     2     1    27    1
     3     1    28    1
     4     1    29    1
     5     2     3    2
     6     2     4    2
     7     2     5   am
     8     5    26    1
     9     5     6    1
    10     6     7    1
    11     6    30    1
    12     6    31    1
    13     7     8    1
    14     7    32    1
    15     7    33    1
    16     8     9    1
    17     8    34    1
    18     8    35    1
    19     9    10   am
    20     9    25    1
    21    10    11    2
    22    10    12   am
    23    12    13    1
    24    12    36    1
    25    13    14    1
    26    13    24    1
    27    13    15    1
    28    15    16    1
    29    15    37    1
    30    15    38    1
    31    16    17    1
    32    16    39    1
    33    16    40    1
    34    17    18    1
    35    18    24   ar
    36    18    19   ar
    37    19    20    1
    38    19    21   ar
    39    21    22   ar
    40    21    41    1
    41    22    23   ar
    42    22    42    1
    43    23    24   ar
    44    23    43    1
    45    25    26    1
    46    25    44    1
    47    25    45    1
    48    26    46    1
    49    26    47    1
@<TRIPOS>SUBSTRUCTURE
     1 ZINC000371438955        1 TEMP              0 ****  ****    0 ROOT


##########                                Name:    ZINC000010935976
##########                DOCK_Rotatable_Bonds:                   3
##########                         Heavy_Atoms:                  26
##########                    Molecular_Weight:             391.558
##########                DOCK_Rotatable_Bonds:                   3
##########                       Formal_Charge:         -0.00999979
##########                     HBond_Acceptors:                   7
##########                        HBond_Donors:                   1
##########                         Heavy_Atoms:                  26
##########                          Grid_Score:          -26.972065
##########                     Grid_vdw_energy:          -27.487051
##########                      Grid_es_energy:            0.514986
##########           Internal_energy_repulsive:          132.597733

@<TRIPOS>MOLECULE
ZINC000010935976
 51 54 1 0 0
SMALL
USER_CHARGES


@<TRIPOS>ATOM
      1 C1         -9.9158    1.0352   66.8520 C.3     1  ZINC000010935976   -0.0800
      2 C2        -10.6550    0.7035   65.5814 C.2     1  ZINC000010935976   -0.2100
      3 C3        -10.1444    0.0091   64.5833 C.2     1  ZINC000010935976   -0.0400
      4 C4         -8.7401   -0.5372   64.6091 C.3     1  ZINC000010935976   -0.1000
      5 C5        -11.0395   -0.1888   63.4583 C.2     1  ZINC000010935976   -0.2300
      6 C6        -12.2814    0.4072   63.6659 C.2     1  ZINC000010935976    0.0900
      7 N7        -13.2321    0.3170   62.7147 N.2     1  ZINC000010935976   -0.4900
      8 C8        -13.0195   -0.3217   61.5893 C.2     1  ZINC000010935976    0.3400
      9 S9        -14.3066   -0.4002   60.3886 S.3     1  ZINC000010935976    0.0500
     10 C10       -15.7225    0.0673   61.4146 C.3     1  ZINC000010935976   -0.1000
     11 H11       -15.5594    1.0604   61.8332 H       1  ZINC000010935976    0.1400
     12 C12       -15.8936   -0.9469   62.5481 C.3     1  ZINC000010935976   -0.1000
     13 C13       -15.5194   -2.3422   62.0821 C.3     1  ZINC000010935976   -0.1300
     14 C14       -16.4587   -2.9108   61.0342 C.3     1  ZINC000010935976   -0.1400
     15 C15       -16.3517   -2.1283   59.7240 C.3     1  ZINC000010935976    0.0700
     16 N16       -17.2635   -0.9746   59.7885 N.am    1  ZINC000010935976   -0.7200
     17 C17       -16.9815    0.0705   60.5732 C.2     1  ZINC000010935976    0.5400
     18 O18       -17.7382    1.0174   60.6138 O.2     1  ZINC000010935976   -0.5200
     19 N19       -11.8247   -0.9266   61.3256 N.am    1  ZINC000010935976   -0.5100
     20 C20       -11.6277   -1.6296   60.0555 C.3     1  ZINC000010935976    0.1200
     21 C21       -10.7206   -0.7972   59.1259 C.3     1  ZINC000010935976   -0.1300
     22 C22        -9.3040   -1.3793   59.3567 C.3     1  ZINC000010935976   -0.1300
     23 C23        -9.5782   -2.8961   59.5085 C.3     1  ZINC000010935976   -0.1100
     24 C24       -10.9014   -2.9641   60.2988 C.3     1  ZINC000010935976   -0.1200
     25 C25       -10.8254   -0.8792   62.2278 C.2     1  ZINC000010935976    0.5600
     26 O26        -9.7564   -1.4181   61.9975 O.2     1  ZINC000010935976   -0.5000
     27 S27       -12.3067    1.1850   65.2434 S.3     1  ZINC000010935976    0.2100
     28 H28       -10.5655    1.6119   67.5103 H       1  ZINC000010935976    0.0700
     29 H29        -9.6192    0.1127   67.3512 H       1  ZINC000010935976    0.0800
     30 H30        -9.0280    1.6209   66.6135 H       1  ZINC000010935976    0.0800
     31 H31        -8.7471   -1.5371   65.0431 H       1  ZINC000010935976    0.0700
     32 H32        -8.3502   -0.5851   63.5924 H       1  ZINC000010935976    0.0800
     33 H33        -8.1074    0.1156   65.2106 H       1  ZINC000010935976    0.0700
     34 H34       -15.2527   -0.6634   63.3830 H       1  ZINC000010935976    0.0900
     35 H35       -16.9326   -0.9451   62.8776 H       1  ZINC000010935976    0.0900
     36 H36       -14.5121   -2.3118   61.6667 H       1  ZINC000010935976    0.0700
     37 H37       -15.5167   -3.0081   62.9450 H       1  ZINC000010935976    0.0800
     38 H38       -16.2016   -3.9540   60.8507 H       1  ZINC000010935976    0.0800
     39 H39       -17.4829   -2.8544   61.4027 H       1  ZINC000010935976    0.0700
     40 H40       -15.3282   -1.7785   59.5894 H       1  ZINC000010935976    0.1100
     41 H41       -16.6336   -2.7712   58.8900 H       1  ZINC000010935976    0.0900
     42 H42       -18.0743   -0.9709   59.2559 H       1  ZINC000010935976    0.4000
     43 H43       -12.5898   -1.8101   59.5759 H       1  ZINC000010935976    0.1000
     44 H44       -11.0207   -0.9249   58.0858 H       1  ZINC000010935976    0.0800
     45 H45       -10.7508    0.2557   59.4061 H       1  ZINC000010935976    0.0700
     46 H46        -8.6625   -1.1869   58.4967 H       1  ZINC000010935976    0.0600
     47 H47        -8.8633   -0.9735   60.2672 H       1  ZINC000010935976    0.1100
     48 H48        -9.6938   -3.3627   58.5303 H       1  ZINC000010935976    0.0600
     49 H49        -8.7747   -3.3750   60.0681 H       1  ZINC000010935976    0.0700
     50 H50       -10.6954   -3.0887   61.3618 H       1  ZINC000010935976    0.0800
     51 H51       -11.5106   -3.7922   59.9365 H       1  ZINC000010935976    0.0700
@<TRIPOS>BOND
     1     1     2    1
     2     1    28    1
     3     1    29    1
     4     1    30    1
     5     2    27    1
     6     2     3    2
     7     3     4    1
     8     3     5    1
     9     4    31    1
    10     4    32    1
    11     4    33    1
    12     5    25    1
    13     5     6    2
    14     6     7    1
    15     6    27    1
    16     7     8    2
    17     8     9    1
    18     8    19    1
    19     9    10    1
    20    10    11    1
    21    10    17    1
    22    10    12    1
    23    12    13    1
    24    12    34    1
    25    12    35    1
    26    13    14    1
    27    13    36    1
    28    13    37    1
    29    14    15    1
    30    14    38    1
    31    14    39    1
    32    15    16    1
    33    15    40    1
    34    15    41    1
    35    16    17   am
    36    16    42    1
    37    17    18    2
    38    19    20    1
    39    19    25   am
    40    20    24    1
    41    20    21    1
    42    20    43    1
    43    21    22    1
    44    21    44    1
    45    21    45    1
    46    22    23    1
    47    22    46    1
    48    22    47    1
    49    23    24    1
    50    23    48    1
    51    23    49    1
    52    24    50    1
    53    24    51    1
    54    25    26    2
@<TRIPOS>SUBSTRUCTURE
     1 ZINC000010935976        1 TEMP              0 ****  ****    0 ROOT


##########                                Name:    ZINC001248546333
##########                DOCK_Rotatable_Bonds:                   6
##########                         Heavy_Atoms:                  27
##########                    Molecular_Weight:             378.397
##########                DOCK_Rotatable_Bonds:                   6
##########                       Formal_Charge:         3.94881e-07
##########                     HBond_Acceptors:                   8
##########                        HBond_Donors:                   1
##########                         Heavy_Atoms:                  27
##########                          Grid_Score:          -26.959698
##########                     Grid_vdw_energy:          -27.063570
##########                      Grid_es_energy:            0.103872
##########           Internal_energy_repulsive:           29.826132

@<TRIPOS>MOLECULE
ZINC001248546333
 48 50 1 0 0
SMALL
USER_CHARGES


@<TRIPOS>ATOM
      1 C1        -11.4340   -4.0938   58.1289 C.3     1  ZINC001248546333   -0.1200
      2 C2        -10.8253   -2.7155   58.1011 C.ar    1  ZINC001248546333   -0.0800
      3 C3        -10.4415   -2.1067   59.2823 C.ar    1  ZINC001248546333   -0.1200
      4 C4         -9.8818   -0.8414   59.2654 C.ar    1  ZINC001248546333   -0.1100
      5 C5         -9.7028   -0.1790   58.0685 C.ar    1  ZINC001248546333   -0.1100
      6 C6        -10.0874   -0.7879   56.8733 C.ar    1  ZINC001248546333   -0.0600
      7 C7         -9.8984   -0.0840   55.5872 C.2     1  ZINC001248546333   -0.0600
      8 C8        -10.2834   -0.6952   54.4931 C.2     1  ZINC001248546333   -0.1700
      9 C9        -10.1351   -0.1046   53.1185 C.3     1  ZINC001248546333    0.1500
     10 N10        -9.7595    1.3113   53.2398 N.am    1  ZINC001248546333   -0.6300
     11 C11       -10.3294    2.2564   52.4662 C.2     1  ZINC001248546333    0.7200
     12 O12       -10.0004    3.4206   52.5871 O.2     1  ZINC001248546333   -0.5800
     13 N13       -11.2640    1.9110   51.5587 N.am    1  ZINC001248546333   -0.7500
     14 C14       -11.8835    2.9383   50.7178 C.3     1  ZINC001248546333    0.2000
     15 C15       -12.1487    2.3723   49.3466 C.2     1  ZINC001248546333    0.0700
     16 C16       -13.0784    1.4400   49.0344 C.2     1  ZINC001248546333   -0.2000
     17 C17       -12.9969    1.1944   47.6598 C.2     1  ZINC001248546333   -0.0200
     18 C18       -13.8504    0.2250   46.8833 C.3     1  ZINC001248546333    0.5600
     19 F19       -13.9491    0.6513   45.5545 F       1  ZINC001248546333   -0.1700
     20 F20       -13.2668   -1.0458   46.9233 F       1  ZINC001248546333   -0.1700
     21 F21       -15.1277    0.1697   47.4513 F       1  ZINC001248546333   -0.1600
     22 N22       -12.0523    1.9521   47.1645 N.2     1  ZINC001248546333   -0.2200
     23 N23       -11.5055    2.7089   48.2089 N.pl3   1  ZINC001248546333   -0.3400
     24 C24       -10.4209    3.6863   48.0888 C.3     1  ZINC001248546333    0.0900
     25 C25        -8.7348    1.6558   54.2406 C.3     1  ZINC001248546333    0.1300
     26 C26        -9.2845    1.2840   55.6221 C.3     1  ZINC001248546333   -0.1000
     27 C27       -10.6466   -2.0659   56.8968 C.ar    1  ZINC001248546333   -0.1100
     28 H28       -10.6446   -4.8413   58.0504 H       1  ZINC001248546333    0.0700
     29 H29       -11.9748   -4.2334   59.0649 H       1  ZINC001248546333    0.0700
     30 H30       -12.1230   -4.2036   57.2913 H       1  ZINC001248546333    0.0700
     31 H31       -10.5796   -2.6209   60.2219 H       1  ZINC001248546333    0.1200
     32 H32        -9.5849   -0.3711   60.1911 H       1  ZINC001248546333    0.1200
     33 H33        -9.2661    0.8087   58.0567 H       1  ZINC001248546333    0.1200
     34 H34       -10.7302   -1.6743   54.5840 H       1  ZINC001248546333    0.1200
     35 H35        -9.3593   -0.6418   52.5730 H       1  ZINC001248546333    0.0800
     36 H36       -11.0811   -0.1860   52.5831 H       1  ZINC001248546333    0.0800
     37 H37       -11.5264    0.9822   51.4622 H       1  ZINC001248546333    0.4000
     38 H38       -12.8239    3.2573   51.1674 H       1  ZINC001248546333    0.1000
     39 H39       -11.2123    3.7931   50.6345 H       1  ZINC001248546333    0.0900
     40 H40       -13.7621    0.9685   49.7247 H       1  ZINC001248546333    0.1700
     41 H41       -10.8402    4.6708   47.8812 H       1  ZINC001248546333    0.0900
     42 H42        -9.8578    3.7205   49.0215 H       1  ZINC001248546333    0.1000
     43 H43        -9.7576    3.3947   47.2746 H       1  ZINC001248546333    0.1000
     44 H44        -7.8213    1.0959   54.0405 H       1  ZINC001248546333    0.0700
     45 H45        -8.5280    2.7254   54.2033 H       1  ZINC001248546333    0.1000
     46 H46       -10.0360    2.0153   55.9198 H       1  ZINC001248546333    0.0800
     47 H47        -8.4711    1.2913   56.3476 H       1  ZINC001248546333    0.0900
     48 H48       -10.9464   -2.5425   55.9751 H       1  ZINC001248546333    0.1200
@<TRIPOS>BOND
     1     1     2    1
     2     1    28    1
     3     1    29    1
     4     1    30    1
     5     2    27   ar
     6     2     3   ar
     7     3     4   ar
     8     3    31    1
     9     4     5   ar
    10     4    32    1
    11     5     6   ar
    12     5    33    1
    13     6     7    1
    14     6    27   ar
    15     7    26    1
    16     7     8    2
    17     8     9    1
    18     8    34    1
    19     9    10    1
    20     9    35    1
    21     9    36    1
    22    10    11   am
    23    10    25    1
    24    11    12    2
    25    11    13   am
    26    13    14    1
    27    13    37    1
    28    14    15    1
    29    14    38    1
    30    14    39    1
    31    15    23    1
    32    15    16    2
    33    16    17    1
    34    16    40    1
    35    17    18    1
    36    17    22    2
    37    18    19    1
    38    18    20    1
    39    18    21    1
    40    22    23    1
    41    23    24    1
    42    24    41    1
    43    24    42    1
    44    24    43    1
    45    25    26    1
    46    25    44    1
    47    25    45    1
    48    26    46    1
    49    26    47    1
    50    27    48    1
@<TRIPOS>SUBSTRUCTURE
     1 ZINC001248546333        1 TEMP              0 ****  ****    0 ROOT


##########                                Name:    ZINC000171059239
##########                DOCK_Rotatable_Bonds:                   8
##########                         Heavy_Atoms:                  25
##########                    Molecular_Weight:              333.39
##########                DOCK_Rotatable_Bonds:                   8
##########                       Formal_Charge:         1.10269e-06
##########                     HBond_Acceptors:                   5
##########                        HBond_Donors:                   4
##########                         Heavy_Atoms:                  25
##########                          Grid_Score:          -26.950102
##########                     Grid_vdw_energy:          -26.521690
##########                      Grid_es_energy:           -0.428411
##########           Internal_energy_repulsive:            7.076275

@<TRIPOS>MOLECULE
ZINC000171059239
 44 46 1 0 0
SMALL
USER_CHARGES


@<TRIPOS>ATOM
      1 N1          0.1899    1.7437   58.3183 N.am    1  ZINC000171059239   -0.8500
      2 C2         -1.0847    2.1172   58.0900 C.2     1  ZINC000171059239    0.5600
      3 O3         -1.9647    1.7748   58.8553 O.2     1  ZINC000171059239   -0.5400
      4 C4         -1.4125    2.9434   56.9084 C.ar    1  ZINC000171059239   -0.1400
      5 C5         -2.7402    3.2683   56.6270 C.ar    1  ZINC000171059239   -0.0900
      6 C6         -3.0393    4.0400   55.5230 C.ar    1  ZINC000171059239   -0.1200
      7 C7         -2.0264    4.4909   54.6957 C.ar    1  ZINC000171059239   -0.0800
      8 C8         -0.7078    4.1719   54.9687 C.ar    1  ZINC000171059239   -0.0900
      9 C9          0.3889    4.6672   54.0617 C.3     1  ZINC000171059239   -0.0900
     10 C10         0.7101    3.5959   53.0177 C.3     1  ZINC000171059239    0.1400
     11 N11        -0.4362    3.4289   52.1207 N.am    1  ZINC000171059239   -0.7400
     12 C12        -0.2959    2.7444   50.9683 C.2     1  ZINC000171059239    0.7000
     13 O13         0.7816    2.2643   50.6736 O.2     1  ZINC000171059239   -0.5700
     14 N14        -1.3500    2.5922   50.1423 N.am    1  ZINC000171059239   -0.6800
     15 C15        -1.2047    1.8831   48.9483 C.ar    1  ZINC000171059239    0.1700
     16 C16        -0.7807    2.5431   47.7755 C.ar    1  ZINC000171059239   -0.0600
     17 C17        -0.4959    3.9176   47.7758 C.ar    1  ZINC000171059239   -0.1100
     18 C18        -0.0887    4.5219   46.6256 C.ar    1  ZINC000171059239   -0.1100
     19 C19         0.0499    3.7955   45.4445 C.ar    1  ZINC000171059239   -0.1200
     20 C20        -0.2175    2.4615   45.4071 C.ar    1  ZINC000171059239   -0.1000
     21 C21        -0.6398    1.8035   46.5753 C.ar    1  ZINC000171059239   -0.0400
     22 C22        -0.9241    0.4274   46.5737 C.ar    1  ZINC000171059239   -0.1200
     23 C23        -1.3310   -0.1841   47.7201 C.ar    1  ZINC000171059239   -0.0900
     24 C24        -1.4685    0.5310   48.9060 C.ar    1  ZINC000171059239   -0.1200
     25 C25        -0.3947    3.4065   56.0727 C.ar    1  ZINC000171059239   -0.0500
     26 H26         0.4052    1.2027   59.0941 H       1  ZINC000171059239    0.4100
     27 H27         0.8915    2.0127   57.7048 H       1  ZINC000171059239    0.4000
     28 H28        -3.5318    2.9162   57.2718 H       1  ZINC000171059239    0.1300
     29 H29        -4.0663    4.2922   55.3041 H       1  ZINC000171059239    0.1300
     30 H30        -2.2659    5.0944   53.8326 H       1  ZINC000171059239    0.1300
     31 H31         0.0616    5.5776   53.5593 H       1  ZINC000171059239    0.0800
     32 H32         1.2807    4.8784   54.6518 H       1  ZINC000171059239    0.0800
     33 H33         1.5821    3.9017   52.4397 H       1  ZINC000171059239    0.0700
     34 H34         0.9196    2.6511   53.5193 H       1  ZINC000171059239    0.0700
     35 H35        -1.2962    3.8109   52.3564 H       1  ZINC000171059239    0.4000
     36 H36        -2.2096    2.9752   50.3774 H       1  ZINC000171059239    0.4100
     37 H37        -0.5996    4.4931   48.6838 H       1  ZINC000171059239    0.1200
     38 H38         0.1299    5.5795   46.6287 H       1  ZINC000171059239    0.1200
     39 H39         0.3738    4.2986   44.5455 H       1  ZINC000171059239    0.1200
     40 H40        -0.1062    1.9113   44.4844 H       1  ZINC000171059239    0.1300
     41 H41        -0.8202   -0.1447   45.6636 H       1  ZINC000171059239    0.1300
     42 H42        -1.5474   -1.2421   47.7098 H       1  ZINC000171059239    0.1300
     43 H43        -1.7926    0.0222   49.8018 H       1  ZINC000171059239    0.1400
     44 H44         0.6347    3.1584   56.2849 H       1  ZINC000171059239    0.1400
@<TRIPOS>BOND
     1     1     2   am
     2     1    26    1
     3     1    27    1
     4     2     3    2
     5     2     4    1
     6     4    25   ar
     7     4     5   ar
     8     5     6   ar
     9     5    28    1
    10     6     7   ar
    11     6    29    1
    12     7     8   ar
    13     7    30    1
    14     8     9    1
    15     8    25   ar
    16     9    10    1
    17     9    31    1
    18     9    32    1
    19    10    11    1
    20    10    33    1
    21    10    34    1
    22    11    12   am
    23    11    35    1
    24    12    13    2
    25    12    14   am
    26    14    15    1
    27    14    36    1
    28    15    24   ar
    29    15    16   ar
    30    16    21   ar
    31    16    17   ar
    32    17    18   ar
    33    17    37    1
    34    18    19   ar
    35    18    38    1
    36    19    20   ar
    37    19    39    1
    38    20    21   ar
    39    20    40    1
    40    21    22   ar
    41    22    23   ar
    42    22    41    1
    43    23    24   ar
    44    23    42    1
    45    24    43    1
    46    25    44    1
@<TRIPOS>SUBSTRUCTURE
     1 ZINC000171059239        1 TEMP              0 ****  ****    0 ROOT


##########                                Name:    ZINC001064463188
##########                DOCK_Rotatable_Bonds:                   6
##########                         Heavy_Atoms:                  25
##########                    Molecular_Weight:             342.441
##########                DOCK_Rotatable_Bonds:                   6
##########                       Formal_Charge:          -0.0100004
##########                     HBond_Acceptors:                   6
##########                        HBond_Donors:                   0
##########                         Heavy_Atoms:                  25
##########                          Grid_Score:          -26.923176
##########                     Grid_vdw_energy:          -26.331839
##########                      Grid_es_energy:           -0.591337
##########           Internal_energy_repulsive:           11.566037

@<TRIPOS>MOLECULE
ZINC001064463188
 51 54 1 0 0
SMALL
USER_CHARGES


@<TRIPOS>ATOM
      1 C1        -10.5533   -0.6065   53.3307 C.3     1  ZINC001064463188    0.0400
      2 O2         -9.6201    0.4569   53.5317 O.3     1  ZINC001064463188   -0.3000
      3 C3         -9.3460    0.8008   54.8136 C.ar    1  ZINC001064463188    0.3900
      4 C4         -8.4969    1.8706   55.0922 C.ar    1  ZINC001064463188   -0.2800
      5 C5         -8.2452    2.1861   56.4144 C.ar    1  ZINC001064463188    0.2000
      6 N6         -8.8138    1.4681   57.3709 N.ar    1  ZINC001064463188   -0.5800
      7 C7         -9.6168    0.4564   57.0759 C.ar    1  ZINC001064463188    0.5300
      8 N8        -10.1929   -0.2700   58.1034 N.3     1  ZINC001064463188   -0.4500
      9 C9         -9.4056   -1.4630   58.4065 C.3     1  ZINC001064463188    0.0700
     10 C10       -10.3299   -2.6713   58.5983 C.3     1  ZINC001064463188   -0.1200
     11 C11       -11.1918   -2.5370   59.8391 C.3     1  ZINC001064463188    0.1400
     12 H12       -11.8746   -3.3837   59.9104 H       1  ZINC001064463188    0.0900
     13 C13       -10.3426   -2.4438   61.1084 C.3     1  ZINC001064463188   -0.1300
     14 C14       -10.0838   -0.9367   61.2813 C.3     1  ZINC001064463188   -0.1300
     15 C15       -11.1176   -0.2458   60.3854 C.3     1  ZINC001064463188    0.1200
     16 H16       -11.7464    0.4097   60.9879 H       1  ZINC001064463188    0.0900
     17 C17       -10.4089    0.5822   59.3023 C.3     1  ZINC001064463188    0.0600
     18 N18       -11.9667   -1.2674   59.7162 N.am    1  ZINC001064463188   -0.6000
     19 C19       -13.1660   -1.0783   59.1310 C.2     1  ZINC001064463188    0.5800
     20 O20       -13.6670    0.0298   59.1156 O.2     1  ZINC001064463188   -0.5400
     21 C21       -13.8688   -2.2120   58.5109 C.2     1  ZINC001064463188   -0.2200
     22 C22       -15.0578   -2.5898   58.9718 C.2     1  ZINC001064463188    0.0000
     23 C23       -15.7778   -3.7513   58.3365 C.3     1  ZINC001064463188   -0.1300
     24 C24       -15.6850   -1.8564   60.1292 C.3     1  ZINC001064463188   -0.1200
     25 C25       -16.6016   -2.6550   61.0583 C.3     1  ZINC001064463188   -0.1900
     26 C26       -15.2139   -2.2243   61.5376 C.3     1  ZINC001064463188   -0.1600
     27 N27        -9.8868    0.1269   55.8215 N.ar    1  ZINC001064463188   -0.5900
     28 H28       -11.5124   -0.3367   53.7731 H       1  ZINC001064463188    0.0600
     29 H29       -10.6819   -0.7798   52.2622 H       1  ZINC001064463188    0.1000
     30 H30       -10.1775   -1.5139   53.8034 H       1  ZINC001064463188    0.0600
     31 H31        -8.0455    2.4399   54.2932 H       1  ZINC001064463188    0.1500
     32 H32        -7.5917    3.0087   56.6645 H       1  ZINC001064463188    0.1800
     33 H33        -8.7183   -1.6608   57.5840 H       1  ZINC001064463188    0.0800
     34 H34        -8.8344   -1.2964   59.3198 H       1  ZINC001064463188    0.0600
     35 H35       -10.9766   -2.7647   57.7259 H       1  ZINC001064463188    0.0800
     36 H36        -9.7221   -3.5720   58.6848 H       1  ZINC001064463188    0.0800
     37 H37       -10.8913   -2.8371   61.9641 H       1  ZINC001064463188    0.0800
     38 H38        -9.4023   -2.9797   60.9783 H       1  ZINC001064463188    0.0900
     39 H39       -10.2296   -0.6450   62.3214 H       1  ZINC001064463188    0.0800
     40 H40        -9.0740   -0.6867   60.9557 H       1  ZINC001064463188    0.0800
     41 H41        -9.4400    0.9162   59.6734 H       1  ZINC001064463188    0.0700
     42 H42       -11.0210    1.4465   59.0446 H       1  ZINC001064463188    0.0900
     43 H43       -13.4193   -2.7376   57.6814 H       1  ZINC001064463188    0.1200
     44 H44       -15.4924   -4.6750   58.8400 H       1  ZINC001064463188    0.0800
     45 H45       -16.8541   -3.6054   58.4277 H       1  ZINC001064463188    0.0800
     46 H46       -15.5076   -3.8136   57.2823 H       1  ZINC001064463188    0.0700
     47 H47       -15.9431   -0.8142   59.9410 H       1  ZINC001064463188    0.1400
     48 H48       -17.4630   -2.1382   61.4814 H       1  ZINC001064463188    0.1000
     49 H49       -16.7509   -3.7107   60.8324 H       1  ZINC001064463188    0.1000
     50 H50       -14.4502   -2.9969   61.6269 H       1  ZINC001064463188    0.0900
     51 H51       -15.1623   -1.4244   62.2761 H       1  ZINC001064463188    0.1000
@<TRIPOS>BOND
     1     1     2    1
     2     1    28    1
     3     1    29    1
     4     1    30    1
     5     2     3    1
     6     3    27   ar
     7     3     4   ar
     8     4     5   ar
     9     4    31    1
    10     5     6   ar
    11     5    32    1
    12     6     7   ar
    13     7     8    1
    14     7    27   ar
    15     8    17    1
    16     8     9    1
    17     9    10    1
    18     9    33    1
    19     9    34    1
    20    10    11    1
    21    10    35    1
    22    10    36    1
    23    11    12    1
    24    11    18    1
    25    11    13    1
    26    13    14    1
    27    13    37    1
    28    13    38    1
    29    14    15    1
    30    14    39    1
    31    14    40    1
    32    15    16    1
    33    15    17    1
    34    15    18    1
    35    17    41    1
    36    17    42    1
    37    18    19   am
    38    19    20    2
    39    19    21    1
    40    21    22    2
    41    21    43    1
    42    22    23    1
    43    22    24    1
    44    23    44    1
    45    23    45    1
    46    23    46    1
    47    24    26    1
    48    24    25    1
    49    24    47    1
    50    25    26    1
    51    25    48    1
    52    25    49    1
    53    26    50    1
    54    26    51    1
@<TRIPOS>SUBSTRUCTURE
     1 ZINC001064463188        1 TEMP              0 ****  ****    0 ROOT


##########                                Name:    ZINC001181473921
##########                DOCK_Rotatable_Bonds:                   9
##########                         Heavy_Atoms:                  24
##########                    Molecular_Weight:             357.431
##########                DOCK_Rotatable_Bonds:                   9
##########                       Formal_Charge:        -5.96046e-08
##########                     HBond_Acceptors:                   9
##########                        HBond_Donors:                   4
##########                         Heavy_Atoms:                  24
##########                          Grid_Score:          -26.909559
##########                     Grid_vdw_energy:          -24.589510
##########                      Grid_es_energy:           -2.320049
##########           Internal_energy_repulsive:           13.195861

@<TRIPOS>MOLECULE
ZINC001181473921
 47 48 1 0 0
SMALL
USER_CHARGES


@<TRIPOS>ATOM
      1 C1        -10.2435   -3.5080   58.3216 C.3     1  ZINC001181473921   -0.1300
      2 C2        -10.7309   -2.8294   59.5757 C.2     1  ZINC001181473921    0.1900
      3 C3         -9.8604   -2.5725   60.5754 C.2     1  ZINC001181473921   -0.2400
      4 C4        -10.3103   -1.9377   61.7503 C.2     1  ZINC001181473921    0.2500
      5 O5         -9.4492   -1.6728   62.7618 O.3     1  ZINC001181473921   -0.4600
      6 C6        -11.6442   -1.5891   61.8544 C.2     1  ZINC001181473921   -0.3700
      7 C7        -12.5083   -1.8762   60.7914 C.2     1  ZINC001181473921    0.5300
      8 O8        -13.6892   -1.5743   60.8677 O.2     1  ZINC001181473921   -0.5500
      9 N9        -12.0394   -2.4791   59.6832 N.am    1  ZINC001181473921   -0.5000
     10 C10       -12.9569   -2.7722   58.5793 C.3     1  ZINC001181473921    0.1000
     11 C11       -13.1869   -1.5029   57.7567 C.3     1  ZINC001181473921   -0.1600
     12 C12       -13.6233   -1.8790   56.3641 C.2     1  ZINC001181473921    0.5200
     13 O13       -12.8227   -1.8648   55.4531 O.2     1  ZINC001181473921   -0.5300
     14 N14       -14.9032   -2.2311   56.1309 N.am    1  ZINC001181473921   -0.7200
     15 C15       -15.3277   -2.5950   54.7767 C.3     1  ZINC001181473921    0.1400
     16 H16       -14.6975   -2.1086   54.0321 H       1  ZINC001181473921    0.1000
     17 C17       -16.8178   -2.2360   54.5536 C.3     1  ZINC001181473921   -0.1300
     18 C18       -17.2679   -3.1779   53.4179 C.3     1  ZINC001181473921   -0.1500
     19 C19       -16.3126   -4.3839   53.4424 C.3     1  ZINC001181473921   -0.0800
     20 H20       -15.7790   -4.4570   52.4947 H       1  ZINC001181473921    0.0900
     21 C21       -17.0992   -5.6705   53.7011 C.3     1  ZINC001181473921   -0.6200
     22 S22       -15.9560   -7.0778   53.7551 S.o2    1  ZINC001181473921    2.6100
     23 N23       -16.9355   -8.3986   53.9503 N.am    1  ZINC001181473921   -1.2500
     24 O24       -15.3489   -7.2761   52.4857 O.2     1  ZINC001181473921   -0.9600
     25 O25       -15.1761   -7.0413   54.9424 O.2     1  ZINC001181473921   -0.9600
     26 C26       -15.3104   -4.1326   54.5907 C.3     1  ZINC001181473921   -0.1200
     27 H27       -10.4965   -2.8962   57.4557 H       1  ZINC001181473921    0.0900
     28 H28        -9.1622   -3.6345   58.3737 H       1  ZINC001181473921    0.1000
     29 H29       -10.7194   -4.4842   58.2282 H       1  ZINC001181473921    0.0900
     30 H30        -8.8223   -2.8530   60.4750 H       1  ZINC001181473921    0.1500
     31 H31        -8.7072   -1.1068   62.5086 H       1  ZINC001181473921    0.4100
     32 H32       -12.0144   -1.1020   62.7444 H       1  ZINC001181473921    0.1500
     33 H33       -12.5247   -3.5443   57.9429 H       1  ZINC001181473921    0.1000
     34 H34       -13.9080   -3.1225   58.9806 H       1  ZINC001181473921    0.1100
     35 H35       -13.9614   -0.8989   58.2293 H       1  ZINC001181473921    0.1100
     36 H36       -12.2607   -0.9307   57.7049 H       1  ZINC001181473921    0.1000
     37 H37       -15.5432   -2.2436   56.8596 H       1  ZINC001181473921    0.4000
     38 H38       -17.3956   -2.4258   55.4582 H       1  ZINC001181473921    0.0700
     39 H39       -16.9177   -1.1945   54.2477 H       1  ZINC001181473921    0.0800
     40 H40       -18.2918   -3.5090   53.5910 H       1  ZINC001181473921    0.0900
     41 H41       -17.1981   -2.6657   52.4582 H       1  ZINC001181473921    0.0800
     42 H42       -17.6228   -5.5909   54.6538 H       1  ZINC001181473921    0.1400
     43 H43       -17.8231   -5.8209   52.9001 H       1  ZINC001181473921    0.1400
     44 H44       -17.6113   -8.6037   53.2854 H       1  ZINC001181473921    0.4100
     45 H45       -16.8334   -8.9673   54.7294 H       1  ZINC001181473921    0.4200
     46 H46       -14.3149   -4.4767   54.3103 H       1  ZINC001181473921    0.0800
     47 H47       -15.6434   -4.6277   55.5028 H       1  ZINC001181473921    0.0800
@<TRIPOS>BOND
     1     1     2    1
     2     1    27    1
     3     1    28    1
     4     1    29    1
     5     2     9    1
     6     2     3    2
     7     3     4    1
     8     3    30    1
     9     4     5    1
    10     4     6    2
    11     5    31    1
    12     6     7    1
    13     6    32    1
    14     7     8    2
    15     7     9   am
    16     9    10    1
    17    10    11    1
    18    10    33    1
    19    10    34    1
    20    11    12    1
    21    11    35    1
    22    11    36    1
    23    12    13    2
    24    12    14   am
    25    14    15    1
    26    14    37    1
    27    15    16    1
    28    15    26    1
    29    15    17    1
    30    17    18    1
    31    17    38    1
    32    17    39    1
    33    18    19    1
    34    18    40    1
    35    18    41    1
    36    19    20    1
    37    19    21    1
    38    19    26    1
    39    21    22    1
    40    21    42    1
    41    21    43    1
    42    22    23   am
    43    22    24    2
    44    22    25    2
    45    23    44    1
    46    23    45    1
    47    26    46    1
    48    26    47    1
@<TRIPOS>SUBSTRUCTURE
     1 ZINC001181473921        1 TEMP              0 ****  ****    0 ROOT


##########                                Name:    ZINC000898967786
##########                DOCK_Rotatable_Bonds:                   5
##########                         Heavy_Atoms:                  25
##########                    Molecular_Weight:             356.448
##########                DOCK_Rotatable_Bonds:                   5
##########                       Formal_Charge:        -2.38419e-07
##########                     HBond_Acceptors:                   7
##########                        HBond_Donors:                   1
##########                         Heavy_Atoms:                  25
##########                          Grid_Score:          -26.896833
##########                     Grid_vdw_energy:          -24.542202
##########                      Grid_es_energy:           -2.354631
##########           Internal_energy_repulsive:           12.238049

@<TRIPOS>MOLECULE
ZINC000898967786
 45 48 1 0 0
SMALL
USER_CHARGES


@<TRIPOS>ATOM
      1 C1        -12.9535   -2.1919   59.1409 C.3     1  ZINC000898967786   -0.0800
      2 C2        -12.1110   -1.7269   60.3006 C.2     1  ZINC000898967786    0.0900
      3 C3        -10.7610   -1.7468   60.3519 C.2     1  ZINC000898967786   -0.1000
      4 C4         -9.8319   -2.2340   59.2702 C.3     1  ZINC000898967786    0.2200
      5 N5         -9.4178   -1.1029   58.4362 N.am    1  ZINC000898967786   -0.7400
      6 C6         -9.8418   -1.0159   57.1598 C.2     1  ZINC000898967786    0.7100
      7 O7        -10.5680   -1.8762   56.7005 O.2     1  ZINC000898967786   -0.5800
      8 N8         -9.4609    0.0246   56.3926 N.am    1  ZINC000898967786   -0.6300
      9 C9         -8.5827    1.0777   56.9264 C.3     1  ZINC000898967786    0.0900
     10 C10        -9.2207    2.4384   56.6247 C.3     1  ZINC000898967786    0.0500
     11 O11        -9.5292    2.5151   55.2309 O.3     1  ZINC000898967786   -0.3700
     12 C12       -10.4841    1.5475   54.7887 C.3     1  ZINC000898967786    0.1400
     13 H13       -11.4037    1.6542   55.3640 H       1  ZINC000898967786    0.0700
     14 C14       -10.7774    1.7616   53.3261 C.2     1  ZINC000898967786   -0.1100
     15 C15       -10.6096    2.9410   52.7259 C.2     1  ZINC000898967786   -0.1800
     16 S16       -11.0512    2.8071   51.0287 S.3     1  ZINC000898967786    0.1100
     17 C17       -11.4508    1.1068   51.2358 C.2     1  ZINC000898967786   -0.2100
     18 C18       -11.2360    0.7480   52.5025 C.2     1  ZINC000898967786   -0.1300
     19 C19        -9.9060    0.1381   54.9946 C.3     1  ZINC000898967786    0.0900
     20 N20       -10.3954   -1.2415   61.5698 N.pl3   1  ZINC000898967786   -0.3500
     21 C21        -9.1805   -1.0311   62.1552 C.2     1  ZINC000898967786    0.0600
     22 C22        -9.0971   -0.5077   63.3962 C.2     1  ZINC000898967786   -0.1400
     23 C23       -10.2633   -0.1720   64.1037 C.2     1  ZINC000898967786   -0.1000
     24 C24       -11.4806   -0.3765   63.5320 C.2     1  ZINC000898967786   -0.0800
     25 C25       -11.5510   -0.9235   62.2351 C.2     1  ZINC000898967786    0.2400
     26 N26       -12.5738   -1.2211   61.4462 N.2     1  ZINC000898967786   -0.4900
     27 H27       -13.1232   -1.3593   58.4582 H       1  ZINC000898967786    0.0800
     28 H28       -12.4361   -2.9939   58.6144 H       1  ZINC000898967786    0.0700
     29 H29       -13.9107   -2.5589   59.5114 H       1  ZINC000898967786    0.0800
     30 H30        -8.9529   -2.6912   59.7247 H       1  ZINC000898967786    0.1000
     31 H31       -10.3468   -2.9707   58.6535 H       1  ZINC000898967786    0.0700
     32 H32        -8.8384   -0.4167   58.8026 H       1  ZINC000898967786    0.4000
     33 H33        -8.4740    0.9539   58.0038 H       1  ZINC000898967786    0.1100
     34 H34        -7.6046    1.0170   56.4490 H       1  ZINC000898967786    0.0800
     35 H35       -10.1358    2.5485   57.2067 H       1  ZINC000898967786    0.0600
     36 H36        -8.5234    3.2340   56.8876 H       1  ZINC000898967786    0.1100
     37 H37       -10.2569    3.8405   53.2083 H       1  ZINC000898967786    0.1700
     38 H38       -11.8103    0.4522   50.4557 H       1  ZINC000898967786    0.1700
     39 H39       -11.4142   -0.2553   52.8602 H       1  ZINC000898967786    0.1400
     40 H40        -9.0624   -0.0147   54.3215 H       1  ZINC000898967786    0.0800
     41 H41       -10.6757   -0.6073   54.7944 H       1  ZINC000898967786    0.0900
     42 H42        -8.2776   -1.2863   61.6203 H       1  ZINC000898967786    0.1600
     43 H43        -8.1294   -0.3463   63.8478 H       1  ZINC000898967786    0.1500
     44 H44       -10.1939    0.2461   65.0971 H       1  ZINC000898967786    0.1500
     45 H45       -12.3839   -0.1225   64.0667 H       1  ZINC000898967786    0.1500
@<TRIPOS>BOND
     1     1     2    1
     2     1    27    1
     3     1    28    1
     4     1    29    1
     5     2    26    1
     6     2     3    2
     7     3     4    1
     8     3    20    1
     9     4     5    1
    10     4    30    1
    11     4    31    1
    12     5     6   am
    13     5    32    1
    14     6     7    2
    15     6     8   am
    16     8    19    1
    17     8     9    1
    18     9    10    1
    19     9    33    1
    20     9    34    1
    21    10    11    1
    22    10    35    1
    23    10    36    1
    24    11    12    1
    25    12    13    1
    26    12    14    1
    27    12    19    1
    28    14    18    1
    29    14    15    2
    30    15    16    1
    31    15    37    1
    32    16    17    1
    33    17    18    2
    34    17    38    1
    35    18    39    1
    36    19    40    1
    37    19    41    1
    38    20    25    1
    39    20    21    1
    40    21    22    2
    41    21    42    1
    42    22    23    1
    43    22    43    1
    44    23    24    2
    45    23    44    1
    46    24    25    1
    47    24    45    1
    48    25    26    2
@<TRIPOS>SUBSTRUCTURE
     1 ZINC000898967786        1 TEMP              0 ****  ****    0 ROOT


##########                                Name:    ZINC000455156110
##########                DOCK_Rotatable_Bonds:                   4
##########                         Heavy_Atoms:                  27
##########                    Molecular_Weight:             370.424
##########                DOCK_Rotatable_Bonds:                   4
##########                       Formal_Charge:           0.0100002
##########                     HBond_Acceptors:                   6
##########                        HBond_Donors:                   1
##########                         Heavy_Atoms:                  27
##########                          Grid_Score:          -26.877888
##########                     Grid_vdw_energy:          -26.217819
##########                      Grid_es_energy:           -0.660069
##########           Internal_energy_repulsive:           43.740330

@<TRIPOS>MOLECULE
ZINC000455156110
 50 53 1 0 0
SMALL
USER_CHARGES


@<TRIPOS>ATOM
      1 C1        -16.6753   -6.1525   50.8924 C.3     1  ZINC000455156110    0.0300
      2 O2        -16.2141   -6.8547   52.0484 O.3     1  ZINC000455156110   -0.3100
      3 C3        -15.9764   -6.1162   53.1657 C.ar    1  ZINC000455156110    0.0900
      4 C4        -15.5413   -6.7362   54.3264 C.ar    1  ZINC000455156110   -0.1600
      5 C5        -15.2994   -5.9868   55.4619 C.ar    1  ZINC000455156110   -0.0800
      6 C6        -14.8269   -6.6622   56.7235 C.3     1  ZINC000455156110   -0.1100
      7 C7        -15.4911   -4.6123   55.4408 C.ar    1  ZINC000455156110    0.1500
      8 N8        -15.2448   -3.8526   56.5924 N.am    1  ZINC000455156110   -0.6700
      9 C9        -13.9972   -3.4175   56.8585 C.2     1  ZINC000455156110    0.7200
     10 O10       -13.0855   -3.6841   56.0994 O.2     1  ZINC000455156110   -0.5500
     11 N11       -13.7603   -2.6869   57.9660 N.am    1  ZINC000455156110   -0.5600
     12 C12       -14.7734   -2.3081   58.9564 C.3     1  ZINC000455156110    0.1000
     13 C13       -14.0136   -1.4939   60.0106 C.3     1  ZINC000455156110   -0.0200
     14 C14       -14.5768   -0.0770   60.0924 C.3     1  ZINC000455156110   -0.1400
     15 C15       -16.0118   -0.1361   60.6255 C.3     1  ZINC000455156110    0.0600
     16 O16       -16.0196   -0.7955   61.8934 O.3     1  ZINC000455156110   -0.3800
     17 C17       -15.5601   -2.1481   61.8531 C.3     1  ZINC000455156110    0.0600
     18 C18       -14.1055   -2.1762   61.3736 C.3     1  ZINC000455156110   -0.1400
     19 C19       -12.5848   -1.4675   59.5289 C.ar    1  ZINC000455156110   -0.1300
     20 C20       -11.4528   -0.8848   60.0653 C.ar    1  ZINC000455156110   -0.0700
     21 C21       -10.2358   -1.0067   59.4206 C.ar    1  ZINC000455156110   -0.1400
     22 C22       -10.1528   -1.7140   58.2355 C.ar    1  ZINC000455156110   -0.0900
     23 C23       -11.2797   -2.2967   57.6955 C.ar    1  ZINC000455156110   -0.1300
     24 C24       -12.5107   -2.1834   58.3429 C.ar    1  ZINC000455156110    0.1600
     25 C25       -15.9264   -3.9900   54.2783 C.ar    1  ZINC000455156110   -0.1200
     26 C26       -16.1640   -4.7397   53.1414 C.ar    1  ZINC000455156110    0.0900
     27 F27       -16.5873   -4.1353   52.0096 F       1  ZINC000455156110   -0.1300
     28 H28       -16.8251   -6.8574   50.0747 H       1  ZINC000455156110    0.1000
     29 H29       -17.6182   -5.6558   51.1213 H       1  ZINC000455156110    0.0600
     30 H30       -15.9345   -5.4084   50.5997 H       1  ZINC000455156110    0.0600
     31 H31       -15.3916   -7.8056   54.3435 H       1  ZINC000455156110    0.1400
     32 H32       -13.7374   -6.6932   56.7329 H       1  ZINC000455156110    0.0800
     33 H33       -15.1820   -6.1035   57.5896 H       1  ZINC000455156110    0.0600
     34 H34       -15.2196   -7.6783   56.7607 H       1  ZINC000455156110    0.0800
     35 H35       -15.9721   -3.6399   57.1978 H       1  ZINC000455156110    0.4100
     36 H36       -15.5476   -1.6974   58.4918 H       1  ZINC000455156110    0.0800
     37 H37       -15.2120   -3.1975   59.4086 H       1  ZINC000455156110    0.0900
     38 H38       -13.9625    0.5208   60.7656 H       1  ZINC000455156110    0.0800
     39 H39       -14.5752    0.3735   59.0999 H       1  ZINC000455156110    0.0800
     40 H40       -16.3993    0.8762   60.7396 H       1  ZINC000455156110    0.1000
     41 H41       -16.6376   -0.6885   59.9245 H       1  ZINC000455156110    0.0500
     42 H42       -15.6227   -2.5833   62.8505 H       1  ZINC000455156110    0.1000
     43 H43       -16.1808   -2.7228   61.1656 H       1  ZINC000455156110    0.0500
     44 H44       -13.7705   -3.2098   61.2868 H       1  ZINC000455156110    0.0800
     45 H45       -13.4759   -1.6471   62.0889 H       1  ZINC000455156110    0.0800
     46 H46       -11.5188   -0.3322   60.9907 H       1  ZINC000455156110    0.1300
     47 H47        -9.3523   -0.5502   59.8415 H       1  ZINC000455156110    0.1300
     48 H48        -9.2026   -1.8101   57.7312 H       1  ZINC000455156110    0.1300
     49 H49       -11.2084   -2.8475   56.7692 H       1  ZINC000455156110    0.1400
     50 H50       -16.0758   -2.9206   54.2612 H       1  ZINC000455156110    0.1700
@<TRIPOS>BOND
     1     1     2    1
     2     1    28    1
     3     1    29    1
     4     1    30    1
     5     2     3    1
     6     3    26   ar
     7     3     4   ar
     8     4     5   ar
     9     4    31    1
    10     5     6    1
    11     5     7   ar
    12     6    32    1
    13     6    33    1
    14     6    34    1
    15     7     8    1
    16     7    25   ar
    17     8     9   am
    18     8    35    1
    19     9    10    2
    20     9    11   am
    21    11    24    1
    22    11    12    1
    23    12    13    1
    24    12    36    1
    25    12    37    1
    26    13    18    1
    27    13    14    1
    28    13    19    1
    29    14    15    1
    30    14    38    1
    31    14    39    1
    32    15    16    1
    33    15    40    1
    34    15    41    1
    35    16    17    1
    36    17    18    1
    37    17    42    1
    38    17    43    1
    39    18    44    1
    40    18    45    1
    41    19    24   ar
    42    19    20   ar
    43    20    21   ar
    44    20    46    1
    45    21    22   ar
    46    21    47    1
    47    22    23   ar
    48    22    48    1
    49    23    24   ar
    50    23    49    1
    51    25    26   ar
    52    25    50    1
    53    26    27    1
@<TRIPOS>SUBSTRUCTURE
     1 ZINC000455156110        1 TEMP              0 ****  ****    0 ROOT


##########                                Name:    ZINC001067560454
##########                DOCK_Rotatable_Bonds:                   4
##########                         Heavy_Atoms:                  25
##########                    Molecular_Weight:             342.444
##########                DOCK_Rotatable_Bonds:                   4
##########                       Formal_Charge:          0.00999971
##########                     HBond_Acceptors:                   7
##########                        HBond_Donors:                   1
##########                         Heavy_Atoms:                  25
##########                          Grid_Score:          -26.876169
##########                     Grid_vdw_energy:          -26.064068
##########                      Grid_es_energy:           -0.812102
##########           Internal_energy_repulsive:           10.188252

@<TRIPOS>MOLECULE
ZINC001067560454
 51 54 1 0 0
SMALL
USER_CHARGES


@<TRIPOS>ATOM
      1 C1        -13.3821   -2.6710   57.0812 C.3     1  ZINC001067560454   -0.1500
      2 C2        -14.2545   -3.0530   58.2787 C.3     1  ZINC001067560454    0.1000
      3 H3        -13.7565   -3.8311   58.8573 H       1  ZINC001067560454    0.0600
      4 C4        -14.4750   -1.8228   59.1620 C.3     1  ZINC001067560454   -0.1200
      5 C5        -15.3648   -2.2050   60.3480 C.3     1  ZINC001067560454    0.1400
      6 H6        -14.8623   -2.9606   60.9519 H       1  ZINC001067560454    0.0900
      7 N7        -15.6259   -1.0184   61.1665 N.am    1  ZINC001067560454   -0.7200
      8 C8        -15.8689   -1.1498   62.4856 C.2     1  ZINC001067560454    0.5400
      9 O9        -15.8728   -2.2504   62.9948 O.2     1  ZINC001067560454   -0.5300
     10 C10       -16.1358    0.0711   63.3279 C.3     1  ZINC001067560454   -0.1100
     11 C11       -17.6206    0.4341   63.3943 C.3     1  ZINC001067560454   -0.1300
     12 C12       -15.4467    0.0339   64.7022 C.3     1  ZINC001067560454   -0.1200
     13 C13       -14.2366    0.6995   64.0260 C.3     1  ZINC001067560454   -0.1400
     14 C14       -15.2245    1.2632   62.9910 C.3     1  ZINC001067560454   -0.1200
     15 C15       -16.6885   -2.7672   59.8225 C.3     1  ZINC001067560454   -0.1200
     16 C16       -16.4040   -3.9700   58.9201 C.3     1  ZINC001067560454    0.0600
     17 N17       -15.5501   -3.5522   57.8007 N.3     1  ZINC001067560454   -0.4900
     18 C18       -15.3799   -4.5844   56.8947 C.ar    1  ZINC001067560454    0.4400
     19 C19       -15.7473   -4.4265   55.5476 C.ar    1  ZINC001067560454   -0.0800
     20 N20       -16.2848   -3.4191   54.8186 N.2     1  ZINC001067560454   -0.4700
     21 C21       -16.4266   -3.8058   53.5841 C.2     1  ZINC001067560454    0.2700
     22 N22       -15.9877   -5.0889   53.4446 N.pl3   1  ZINC001067560454   -0.4800
     23 C23       -15.9833   -5.8739   52.2077 C.3     1  ZINC001067560454    0.0800
     24 C24       -15.5501   -5.5100   54.6748 C.ar    1  ZINC001067560454    0.2800
     25 N25       -15.0274   -6.6355   55.1503 N.ar    1  ZINC001067560454   -0.5200
     26 C26       -14.6977   -6.7379   56.4206 C.ar    1  ZINC001067560454    0.3300
     27 N27       -14.8602   -5.7463   57.2772 N.ar    1  ZINC001067560454   -0.5100
     28 H28       -13.8800   -1.8930   56.5025 H       1  ZINC001067560454    0.0700
     29 H29       -12.4203   -2.3008   57.4359 H       1  ZINC001067560454    0.0700
     30 H30       -13.2247   -3.5472   56.4522 H       1  ZINC001067560454    0.0500
     31 H31       -13.5143   -1.4617   59.5292 H       1  ZINC001067560454    0.0800
     32 H32       -14.9607   -1.0395   58.5802 H       1  ZINC001067560454    0.0800
     33 H33       -15.6240   -0.1382   60.7590 H       1  ZINC001067560454    0.4000
     34 H34       -18.1991   -0.4497   63.6629 H       1  ZINC001067560454    0.0600
     35 H35       -17.7718    1.2095   64.1453 H       1  ZINC001067560454    0.0700
     36 H36       -17.9486    0.8013   62.4218 H       1  ZINC001067560454    0.0600
     37 H37       -15.9298    0.6629   65.4500 H       1  ZINC001067560454    0.0900
     38 H38       -15.2454   -0.9750   65.0625 H       1  ZINC001067560454    0.0700
     39 H39       -13.7611    1.4657   64.6381 H       1  ZINC001067560454    0.0700
     40 H40       -13.5244   -0.0117   63.6076 H       1  ZINC001067560454    0.0800
     41 H41       -14.8438    1.2467   61.9698 H       1  ZINC001067560454    0.0800
     42 H42       -15.6468    2.2283   63.2708 H       1  ZINC001067560454    0.0900
     43 H43       -17.3094   -3.0808   60.6617 H       1  ZINC001067560454    0.0800
     44 H44       -17.2091   -1.9987   59.2510 H       1  ZINC001067560454    0.0800
     45 H45       -15.8957   -4.7437   59.4957 H       1  ZINC001067560454    0.0700
     46 H46       -17.3435   -4.3639   58.5328 H       1  ZINC001067560454    0.0800
     47 H47       -16.8327   -3.1998   52.7877 H       1  ZINC001067560454    0.2300
     48 H48       -15.0394   -5.7220   51.6841 H       1  ZINC001067560454    0.0800
     49 H49       -16.0998   -6.9307   52.4476 H       1  ZINC001067560454    0.0900
     50 H50       -16.8077   -5.5530   51.5708 H       1  ZINC001067560454    0.0900
     51 H51       -14.2753   -7.6667   56.7747 H       1  ZINC001067560454    0.2100
@<TRIPOS>BOND
     1     1     2    1
     2     1    28    1
     3     1    29    1
     4     1    30    1
     5     2     3    1
     6     2    17    1
     7     2     4    1
     8     4     5    1
     9     4    31    1
    10     4    32    1
    11     5     6    1
    12     5     7    1
    13     5    15    1
    14     7     8   am
    15     7    33    1
    16     8     9    2
    17     8    10    1
    18    10    14    1
    19    10    11    1
    20    10    12    1
    21    11    34    1
    22    11    35    1
    23    11    36    1
    24    12    13    1
    25    12    37    1
    26    12    38    1
    27    13    14    1
    28    13    39    1
    29    13    40    1
    30    14    41    1
    31    14    42    1
    32    15    16    1
    33    15    43    1
    34    15    44    1
    35    16    17    1
    36    16    45    1
    37    16    46    1
    38    17    18    1
    39    18    27   ar
    40    18    19   ar
    41    19    24   ar
    42    19    20    1
    43    20    21    2
    44    21    22    1
    45    21    47    1
    46    22    23    1
    47    22    24    1
    48    23    48    1
    49    23    49    1
    50    23    50    1
    51    24    25   ar
    52    25    26   ar
    53    26    27   ar
    54    26    51    1
@<TRIPOS>SUBSTRUCTURE
     1 ZINC001067560454        1 TEMP              0 ****  ****    0 ROOT


##########                                Name:    ZINC000469391664
##########                DOCK_Rotatable_Bonds:                   6
##########                         Heavy_Atoms:                  29
##########                    Molecular_Weight:             408.524
##########                DOCK_Rotatable_Bonds:                   6
##########                       Formal_Charge:         -0.00999999
##########                     HBond_Acceptors:                   7
##########                        HBond_Donors:                   0
##########                         Heavy_Atoms:                  29
##########                          Grid_Score:          -26.862293
##########                     Grid_vdw_energy:          -25.009487
##########                      Grid_es_energy:           -1.852806
##########           Internal_energy_repulsive:           44.367714

@<TRIPOS>MOLECULE
ZINC000469391664
 53 56 1 0 0
SMALL
USER_CHARGES


@<TRIPOS>ATOM
      1 C1         -9.4803   -3.0432   59.8582 C.3     1  ZINC000469391664   -0.1500
      2 C2         -9.9493   -1.5870   59.8817 C.3     1  ZINC000469391664   -0.1000
      3 H3         -9.2913   -0.9835   59.2565 H       1  ZINC000469391664    0.0800
      4 C4         -9.9103   -1.0619   61.3186 C.3     1  ZINC000469391664   -0.1300
      5 C5        -10.3473    0.4062   61.3335 C.3     1  ZINC000469391664    0.1100
      6 N6        -11.6622    0.5149   60.6868 N.am    1  ZINC000469391664   -0.6100
      7 C7        -12.6912    1.1128   61.3193 C.2     1  ZINC000469391664    0.5600
      8 O8        -12.5364    1.5687   62.4359 O.2     1  ZINC000469391664   -0.5000
      9 C9        -14.0052    1.2142   60.6570 C.ar    1  ZINC000469391664   -0.1100
     10 C10       -14.1204    1.8479   59.4178 C.ar    1  ZINC000469391664   -0.0900
     11 C11       -15.3511    1.9389   58.8038 C.ar    1  ZINC000469391664   -0.1000
     12 C12       -16.4766    1.4052   59.4100 C.ar    1  ZINC000469391664   -0.0900
     13 C13       -16.3788    0.7763   60.6350 C.ar    1  ZINC000469391664   -0.1000
     14 C14       -15.1464    0.6695   61.2656 C.ar    1  ZINC000469391664    0.1500
     15 N15       -15.0453    0.0359   62.5007 N.am    1  ZINC000469391664   -0.5800
     16 C16       -14.8125    0.8257   63.7123 C.3     1  ZINC000469391664    0.0900
     17 C17       -15.1617   -1.3044   62.5819 C.2     1  ZINC000469391664    0.6100
     18 O18       -15.0733   -1.8585   63.6620 O.2     1  ZINC000469391664   -0.5200
     19 C19       -15.3945   -2.0944   61.3700 C.2     1  ZINC000469391664   -0.2600
     20 C20       -14.6337   -2.0485   60.2353 C.2     1  ZINC000469391664   -0.0500
     21 C21       -15.0777   -2.8964   59.2487 C.2     1  ZINC000469391664   -0.1500
     22 C22       -16.1639   -3.6126   59.5619 C.2     1  ZINC000469391664   -0.2600
     23 S23       -16.6927   -3.2587   61.1449 S.3     1  ZINC000469391664    0.2300
     24 C24       -11.8338   -0.0403   59.3375 C.3     1  ZINC000469391664    0.1000
     25 C25       -11.3802   -1.5036   59.3452 C.3     1  ZINC000469391664    0.1300
     26 H26       -12.0433   -2.0866   59.9843 H       1  ZINC000469391664    0.1000
     27 N27       -11.4230   -2.0360   57.9810 N.pl3   1  ZINC000469391664   -0.4500
     28 C28       -10.9649   -1.4134   56.8514 C.2     1  ZINC000469391664   -0.0500
     29 C29       -11.1985   -2.2509   55.8230 C.2     1  ZINC000469391664   -0.0300
     30 N30       -11.7835   -3.3546   56.3113 N.2     1  ZINC000469391664   -0.4900
     31 C31       -11.9164   -3.2352   57.6040 C.2     1  ZINC000469391664    0.1800
     32 H32        -9.5075   -3.4172   58.8347 H       1  ZINC000469391664    0.0600
     33 H33        -8.4610   -3.1027   60.2398 H       1  ZINC000469391664    0.0600
     34 H34       -10.1382   -3.6469   60.4833 H       1  ZINC000469391664    0.0600
     35 H35       -10.5871   -1.6492   61.9391 H       1  ZINC000469391664    0.0700
     36 H36        -8.8956   -1.1434   61.7083 H       1  ZINC000469391664    0.0900
     37 H37       -10.4166    0.7565   62.3634 H       1  ZINC000469391664    0.1000
     38 H38        -9.6211    1.0093   60.7884 H       1  ZINC000469391664    0.0800
     39 H39       -13.2462    2.2663   58.9414 H       1  ZINC000469391664    0.1400
     40 H40       -15.4384    2.4292   57.8456 H       1  ZINC000469391664    0.1400
     41 H41       -17.4367    1.4818   58.9212 H       1  ZINC000469391664    0.1400
     42 H42       -17.2609    0.3631   61.1012 H       1  ZINC000469391664    0.1400
     43 H43       -15.7661    1.0418   64.1941 H       1  ZINC000469391664    0.0600
     44 H44       -14.1788    0.2623   64.3972 H       1  ZINC000469391664    0.0900
     45 H45       -14.3193    1.7609   63.4471 H       1  ZINC000469391664    0.0700
     46 H46       -13.7701   -1.4094   60.1248 H       1  ZINC000469391664    0.1500
     47 H47       -14.5861   -2.9782   58.2905 H       1  ZINC000469391664    0.1400
     48 H48       -16.6397   -4.3231   58.9021 H       1  ZINC000469391664    0.1600
     49 H49       -12.8837    0.0152   59.0502 H       1  ZINC000469391664    0.1000
     50 H50       -11.2288    0.5262   58.6295 H       1  ZINC000469391664    0.0800
     51 H51       -10.5048   -0.4379   56.7956 H       1  ZINC000469391664    0.1700
     52 H52       -10.9573   -2.0660   54.7866 H       1  ZINC000469391664    0.1700
     53 H53       -12.3548   -3.9707   58.2624 H       1  ZINC000469391664    0.2000
@<TRIPOS>BOND
     1     1     2    1
     2     1    32    1
     3     1    33    1
     4     1    34    1
     5     2     3    1
     6     2    25    1
     7     2     4    1
     8     4     5    1
     9     4    35    1
    10     4    36    1
    11     5     6    1
    12     5    37    1
    13     5    38    1
    14     6     7   am
    15     6    24    1
    16     7     8    2
    17     7     9    1
    18     9    14   ar
    19     9    10   ar
    20    10    11   ar
    21    10    39    1
    22    11    12   ar
    23    11    40    1
    24    12    13   ar
    25    12    41    1
    26    13    14   ar
    27    13    42    1
    28    14    15    1
    29    15    16    1
    30    15    17   am
    31    16    43    1
    32    16    44    1
    33    16    45    1
    34    17    18    2
    35    17    19    1
    36    19    23    1
    37    19    20    2
    38    20    21    1
    39    20    46    1
    40    21    22    2
    41    21    47    1
    42    22    23    1
    43    22    48    1
    44    24    25    1
    45    24    49    1
    46    24    50    1
    47    25    26    1
    48    25    27    1
    49    27    31    1
    50    27    28    1
    51    28    29    2
    52    28    51    1
    53    29    30    1
    54    29    52    1
    55    30    31    2
    56    31    53    1
@<TRIPOS>SUBSTRUCTURE
     1 ZINC000469391664        1 TEMP              0 ****  ****    0 ROOT


##########                                Name:    ZINC000550011575
##########                DOCK_Rotatable_Bonds:                   6
##########                         Heavy_Atoms:                  28
##########                    Molecular_Weight:             423.935
##########                DOCK_Rotatable_Bonds:                   6
##########                       Formal_Charge:          -0.0100002
##########                     HBond_Acceptors:                   7
##########                        HBond_Donors:                   0
##########                         Heavy_Atoms:                  28
##########                          Grid_Score:          -26.831120
##########                     Grid_vdw_energy:          -25.285246
##########                      Grid_es_energy:           -1.545873
##########           Internal_energy_repulsive:           39.145874

@<TRIPOS>MOLECULE
ZINC000550011575
 51 53 1 0 0
SMALL
USER_CHARGES


@<TRIPOS>ATOM
      1 C1         -9.4139   -1.2108   61.4081 C.3     1  ZINC000550011575   -0.1400
      2 C2        -10.4375   -1.0397   60.2839 C.3     1  ZINC000550011575   -0.6100
      3 H3        -11.3381   -0.5711   60.6808 H       1  ZINC000550011575    0.1500
      4 C4         -9.8537   -0.1690   59.2012 C.2     1  ZINC000550011575    0.5400
      5 O5         -9.3063   -0.6757   58.2449 O.2     1  ZINC000550011575   -0.5100
      6 N6         -9.9399    1.1726   59.2956 N.am    1  ZINC000550011575   -0.6000
      7 C7        -10.5996    1.7847   60.4517 C.3     1  ZINC000550011575    0.0600
      8 C8         -9.3739    2.0189   58.2422 C.3     1  ZINC000550011575    0.1500
      9 C9        -10.1258    1.7908   56.9562 C.ar    1  ZINC000550011575   -0.1500
     10 C10       -11.5079    1.8631   56.9400 C.ar    1  ZINC000550011575    0.1400
     11 F11       -12.1838    2.1381   58.0771 F       1  ZINC000550011575   -0.1100
     12 C12       -12.1976    1.6538   55.7575 C.ar    1  ZINC000550011575   -0.1500
     13 C13       -11.5060    1.3731   54.5946 C.ar    1  ZINC000550011575   -0.0700
     14 C14       -10.1255    1.3009   54.6108 C.ar    1  ZINC000550011575   -0.1300
     15 C15        -9.4347    1.5148   55.7901 C.ar    1  ZINC000550011575    0.0000
     16 Cl16       -7.7011    1.4246   55.8092 Cl      1  ZINC000550011575   -0.0500
     17 S17       -10.8552   -2.6645   59.5938 S.o2    1  ZINC000550011575    2.4500
     18 O18        -9.7221   -3.1658   58.8981 O.2     1  ZINC000550011575   -0.9200
     19 O19       -11.4453   -3.4532   60.6181 O.2     1  ZINC000550011575   -0.9100
     20 C20       -12.1360   -2.2389   58.3819 C.3     1  ZINC000550011575   -0.5300
     21 H21       -11.6649   -1.8151   57.4950 H       1  ZINC000550011575    0.1500
     22 C22       -13.0827   -1.2067   58.9910 C.3     1  ZINC000550011575   -0.1100
     23 C23       -14.2733   -1.0227   58.0427 C.3     1  ZINC000550011575   -0.1100
     24 C24       -15.1186   -2.2944   58.0779 C.3     1  ZINC000550011575   -0.0900
     25 C25       -14.2574   -3.5088   57.8481 C.ar    1  ZINC000550011575   -0.0600
     26 C26       -14.8887   -4.6876   57.4736 C.ar    1  ZINC000550011575   -0.1200
     27 C27       -14.1562   -5.8360   57.2537 C.ar    1  ZINC000550011575   -0.1100
     28 C28       -12.7828   -5.8141   57.4081 C.ar    1  ZINC000550011575   -0.1100
     29 C29       -12.1534   -4.6432   57.7778 C.ar    1  ZINC000550011575   -0.1500
     30 C30       -12.8891   -3.4852   57.9966 C.ar    1  ZINC000550011575   -0.0800
     31 H31        -9.8878   -1.6992   62.2597 H       1  ZINC000550011575    0.0900
     32 H32        -8.5843   -1.8226   61.0540 H       1  ZINC000550011575    0.0900
     33 H33        -9.0407   -0.2328   61.7116 H       1  ZINC000550011575    0.0800
     34 H34        -9.8658    1.9590   61.2386 H       1  ZINC000550011575    0.0700
     35 H35       -11.0462    2.7336   60.1547 H       1  ZINC000550011575    0.0800
     36 H36       -11.3775    1.1170   60.8217 H       1  ZINC000550011575    0.0700
     37 H37        -9.4595    3.0661   58.5323 H       1  ZINC000550011575    0.1000
     38 H38        -8.3233    1.7665   58.0986 H       1  ZINC000550011575    0.1100
     39 H39       -13.2761    1.7098   55.7442 H       1  ZINC000550011575    0.1500
     40 H40       -12.0442    1.2095   53.6727 H       1  ZINC000550011575    0.1500
     41 H41        -9.5859    1.0810   53.7014 H       1  ZINC000550011575    0.1400
     42 H42       -13.4363   -1.5597   59.9598 H       1  ZINC000550011575    0.0800
     43 H43       -12.5611   -0.2576   59.1137 H       1  ZINC000550011575    0.0900
     44 H44       -14.8742   -0.1736   58.3684 H       1  ZINC000550011575    0.0800
     45 H45       -13.9119   -0.8500   57.0290 H       1  ZINC000550011575    0.0700
     46 H46       -15.6039   -2.3767   59.0503 H       1  ZINC000550011575    0.0800
     47 H47       -15.8801   -2.2414   57.2999 H       1  ZINC000550011575    0.0800
     48 H48       -15.9619   -4.7057   57.3537 H       1  ZINC000550011575    0.1300
     49 H49       -14.6542   -6.7490   56.9624 H       1  ZINC000550011575    0.1300
     50 H50       -12.2043   -6.7105   57.2402 H       1  ZINC000550011575    0.1300
     51 H51       -11.0804   -4.6270   57.8988 H       1  ZINC000550011575    0.1700
@<TRIPOS>BOND
     1     1     2    1
     2     1    31    1
     3     1    32    1
     4     1    33    1
     5     2     3    1
     6     2     4    1
     7     2    17    1
     8     4     5    2
     9     4     6   am
    10     6     7    1
    11     6     8    1
    12     7    34    1
    13     7    35    1
    14     7    36    1
    15     8     9    1
    16     8    37    1
    17     8    38    1
    18     9    15   ar
    19     9    10   ar
    20    10    11    1
    21    10    12   ar
    22    12    13   ar
    23    12    39    1
    24    13    14   ar
    25    13    40    1
    26    14    15   ar
    27    14    41    1
    28    15    16    1
    29    17    18    2
    30    17    19    2
    31    17    20    1
    32    20    21    1
    33    20    30    1
    34    20    22    1
    35    22    23    1
    36    22    42    1
    37    22    43    1
    38    23    24    1
    39    23    44    1
    40    23    45    1
    41    24    25    1
    42    24    46    1
    43    24    47    1
    44    25    30   ar
    45    25    26   ar
    46    26    27   ar
    47    26    48    1
    48    27    28   ar
    49    27    49    1
    50    28    29   ar
    51    28    50    1
    52    29    30   ar
    53    29    51    1
@<TRIPOS>SUBSTRUCTURE
     1 ZINC000550011575        1 TEMP              0 ****  ****    0 ROOT


##########                                Name:    ZINC000603906271
##########                DOCK_Rotatable_Bonds:                   8
##########                         Heavy_Atoms:                  29
##########                    Molecular_Weight:             391.473
##########                DOCK_Rotatable_Bonds:                   8
##########                       Formal_Charge:           0.0499998
##########                     HBond_Acceptors:                   7
##########                        HBond_Donors:                   3
##########                         Heavy_Atoms:                  29
##########                          Grid_Score:          -26.830315
##########                     Grid_vdw_energy:          -25.598234
##########                      Grid_es_energy:           -1.232081
##########           Internal_energy_repulsive:           21.585558

@<TRIPOS>MOLECULE
ZINC000603906271
 54 56 1 0 0
SMALL
USER_CHARGES


@<TRIPOS>ATOM
      1 C1          5.8998    2.6158   50.7713 C.3     1  ZINC000603906271   -0.1600
      2 C2          4.8672    1.5415   51.1182 C.3     1  ZINC000603906271    0.1300
      3 H3          5.2420    0.5648   50.8116 H       1  ZINC000603906271    0.1200
      4 N4          4.6293    1.5414   52.5638 N.am    1  ZINC000603906271   -0.7100
      5 C5          5.4916    0.9148   53.3886 C.2     1  ZINC000603906271    0.5700
      6 O6          6.4658    0.3484   52.9330 O.2     1  ZINC000603906271   -0.5300
      7 C7          5.2525    0.9162   54.8476 C.ar    1  ZINC000603906271   -0.1400
      8 C8          4.2694    1.7415   55.3958 C.ar    1  ZINC000603906271   -0.0800
      9 C9          4.0510    1.7378   56.7580 C.ar    1  ZINC000603906271   -0.1200
     10 C10         4.8043    0.9187   57.5803 C.ar    1  ZINC000603906271   -0.0400
     11 C11         4.5605    0.9203   59.0674 C.3     1  ZINC000603906271   -0.0400
     12 C12         4.6057    2.3575   59.5901 C.3     1  ZINC000603906271   -0.1400
     13 C13         3.1864    0.3142   59.3595 C.3     1  ZINC000603906271   -0.1500
     14 C14         5.6420    0.0907   59.7625 C.3     1  ZINC000603906271   -0.1400
     15 C15         5.7801    0.0979   57.0431 C.ar    1  ZINC000603906271   -0.1300
     16 C16         6.0049    0.0882   55.6820 C.ar    1  ZINC000603906271   -0.0500
     17 C17         3.5768    1.8334   50.3967 C.2     1  ZINC000603906271    0.5100
     18 O18         3.5888    2.4791   49.3699 O.2     1  ZINC000603906271   -0.5100
     19 N19         2.4095    1.3772   50.8922 N.am    1  ZINC000603906271   -0.6700
     20 C20         1.2113    1.6483   50.2222 C.ar    1  ZINC000603906271    0.1300
     21 C21         0.1848    2.3172   50.8773 C.ar    1  ZINC000603906271   -0.1200
     22 C22        -1.0001    2.5868   50.2187 C.ar    1  ZINC000603906271   -0.1000
     23 C23        -1.1704    2.1927   48.9068 C.ar    1  ZINC000603906271   -0.0900
     24 C24        -0.1461    1.5206   48.2419 C.ar    1  ZINC000603906271    0.0000
     25 C25        -0.3279    1.0958   46.8316 C.2     1  ZINC000603906271    0.2700
     26 N26        -1.4274    1.2370   46.1242 N.2     1  ZINC000603906271   -0.3000
     27 N27        -1.1611    0.7028   44.8530 N.pl3   1  ZINC000603906271   -0.4800
     28 C28         0.1107    0.2655   44.8807 C.2     1  ZINC000603906271    0.2700
     29 N29         0.6028    0.5099   46.0664 N.2     1  ZINC000603906271   -0.5300
     30 C30         1.0500    1.2546   48.9021 C.ar    1  ZINC000603906271   -0.0800
     31 H31         5.5251    3.5924   51.0778 H       1  ZINC000603906271    0.0700
     32 H32         6.8333    2.4046   51.2931 H       1  ZINC000603906271    0.0800
     33 H33         6.0768    2.6158   49.6957 H       1  ZINC000603906271    0.0700
     34 H34         3.8512    1.9924   52.9272 H       1  ZINC000603906271    0.4100
     35 H35         3.6812    2.3818   54.7553 H       1  ZINC000603906271    0.1300
     36 H36         3.2906    2.3758   57.1836 H       1  ZINC000603906271    0.1300
     37 H37         3.8352    2.9485   59.0950 H       1  ZINC000603906271    0.0600
     38 H38         4.4293    2.3586   60.6658 H       1  ZINC000603906271    0.0600
     39 H39         5.5846    2.7892   59.3820 H       1  ZINC000603906271    0.0600
     40 H40         3.1542   -0.7097   58.9872 H       1  ZINC000603906271    0.0600
     41 H41         3.0100    0.3154   60.4352 H       1  ZINC000603906271    0.0600
     42 H42         2.4159    0.9053   58.8645 H       1  ZINC000603906271    0.0600
     43 H43         6.6209    0.5224   59.5542 H       1  ZINC000603906271    0.0600
     44 H44         5.4656    0.0917   60.8380 H       1  ZINC000603906271    0.0600
     45 H45         5.6099   -0.9333   59.3900 H       1  ZINC000603906271    0.0600
     46 H46         6.3644   -0.5393   57.6904 H       1  ZINC000603906271    0.1400
     47 H47         6.7666   -0.5532   55.2639 H       1  ZINC000603906271    0.1400
     48 H48         2.4000    0.8608   51.7133 H       1  ZINC000603906271    0.4200
     49 H49         0.3130    2.6271   51.9039 H       1  ZINC000603906271    0.1300
     50 H50        -1.7952    3.1070   50.7322 H       1  ZINC000603906271    0.1400
     51 H51        -2.0978    2.4046   48.3955 H       1  ZINC000603906271    0.1400
     52 H52        -1.7740    0.6579   44.1025 H       1  ZINC000603906271    0.4400
     53 H53         0.6365   -0.2031   44.0619 H       1  ZINC000603906271    0.2300
     54 H54         1.8466    0.7343   48.3912 H       1  ZINC000603906271    0.1500
@<TRIPOS>BOND
     1     1     2    1
     2     1    31    1
     3     1    32    1
     4     1    33    1
     5     2     3    1
     6     2     4    1
     7     2    17    1
     8     4     5   am
     9     4    34    1
    10     5     6    2
    11     5     7    1
    12     7    16   ar
    13     7     8   ar
    14     8     9   ar
    15     8    35    1
    16     9    10   ar
    17     9    36    1
    18    10    11    1
    19    10    15   ar
    20    11    12    1
    21    11    13    1
    22    11    14    1
    23    12    37    1
    24    12    38    1
    25    12    39    1
    26    13    40    1
    27    13    41    1
    28    13    42    1
    29    14    43    1
    30    14    44    1
    31    14    45    1
    32    15    16   ar
    33    15    46    1
    34    16    47    1
    35    17    18    2
    36    17    19   am
    37    19    20    1
    38    19    48    1
    39    20    30   ar
    40    20    21   ar
    41    21    22   ar
    42    21    49    1
    43    22    23   ar
    44    22    50    1
    45    23    24   ar
    46    23    51    1
    47    24    25    1
    48    24    30   ar
    49    25    29    1
    50    25    26    2
    51    26    27    1
    52    27    28    1
    53    27    52    1
    54    28    29    2
    55    28    53    1
    56    30    54    1
@<TRIPOS>SUBSTRUCTURE
     1 ZINC000603906271        1 TEMP              0 ****  ****    0 ROOT


##########                                Name:    ZINC000156038173
##########                DOCK_Rotatable_Bonds:                  10
##########                         Heavy_Atoms:                  27
##########                    Molecular_Weight:             396.357
##########                DOCK_Rotatable_Bonds:                  10
##########                       Formal_Charge:         -0.00999981
##########                     HBond_Acceptors:                  10
##########                        HBond_Donors:                   1
##########                         Heavy_Atoms:                  27
##########                          Grid_Score:          -26.824444
##########                     Grid_vdw_energy:          -25.669514
##########                      Grid_es_energy:           -1.154929
##########           Internal_energy_repulsive:           42.900963

@<TRIPOS>MOLECULE
ZINC000156038173
 48 48 1 0 0
SMALL
USER_CHARGES


@<TRIPOS>ATOM
      1 C1         -9.0103    1.2165   57.1187 C.3     1  ZINC000156038173    0.0700
      2 N2        -10.3309    0.6527   56.8289 N.am    1  ZINC000156038173   -0.6300
      3 C3        -11.0054    0.9766   55.5693 C.3     1  ZINC000156038173    0.1500
      4 C4        -10.9502   -0.2339   54.6353 C.3     1  ZINC000156038173   -0.1400
      5 C5        -10.0420    0.0705   53.4718 C.2     1  ZINC000156038173    0.4700
      6 O6        -10.3827   -0.2157   52.3484 O.2     1  ZINC000156038173   -0.5000
      7 O7         -8.8545    0.6595   53.6834 O.3     1  ZINC000156038173   -0.3500
      8 C8         -8.0206    0.8989   52.5192 C.3     1  ZINC000156038173    0.1200
      9 C9         -6.6938    1.5196   52.9611 C.3     1  ZINC000156038173   -0.1800
     10 C10        -7.7505   -0.4264   51.8041 C.3     1  ZINC000156038173   -0.1400
     11 C11        -8.7387    1.8558   51.5655 C.3     1  ZINC000156038173   -0.1800
     12 C12       -10.9255   -0.1641   57.7209 C.2     1  ZINC000156038173    0.7100
     13 O13       -12.0209   -0.6334   57.4798 O.2     1  ZINC000156038173   -0.5700
     14 N14       -10.3057   -0.4609   58.8803 N.am    1  ZINC000156038173   -0.7400
     15 C15       -10.9511   -1.3501   59.8493 C.3     1  ZINC000156038173    0.1700
     16 H16       -11.9695   -1.5635   59.5245 H       1  ZINC000156038173    0.1500
     17 C17       -10.9843   -0.6822   61.1998 C.ar    1  ZINC000156038173   -0.1300
     18 C18        -9.8033   -0.3316   61.8265 C.ar    1  ZINC000156038173   -0.0700
     19 C19        -9.8321    0.2812   63.0655 C.ar    1  ZINC000156038173   -0.1000
     20 C20       -11.0417    0.5446   63.6801 C.ar    1  ZINC000156038173   -0.1100
     21 C21       -12.2261    0.1947   63.0550 C.ar    1  ZINC000156038173    0.0700
     22 F22       -13.4089    0.4517   63.6551 F       1  ZINC000156038173   -0.1200
     23 C23       -12.1975   -0.4147   61.8099 C.ar    1  ZINC000156038173    0.1000
     24 F24       -13.3522   -0.7572   61.1980 F       1  ZINC000156038173   -0.1200
     25 C25       -10.1622   -2.6575   59.9462 C.3     1  ZINC000156038173    0.4500
     26 F26       -10.3154   -3.2007   61.2263 F       1  ZINC000156038173   -0.1700
     27 F27       -10.6424   -3.5636   58.9945 F       1  ZINC000156038173   -0.1600
     28 F28        -8.8075   -2.4036   59.7064 F       1  ZINC000156038173   -0.1700
     29 H29        -9.1273    2.1680   57.6374 H       1  ZINC000156038173    0.0600
     30 H30        -8.4505    0.5256   57.7489 H       1  ZINC000156038173    0.0700
     31 H31        -8.4704    1.3757   56.1853 H       1  ZINC000156038173    0.0800
     32 H32       -12.0455    1.2336   55.7698 H       1  ZINC000156038173    0.1000
     33 H33       -10.5065    1.8229   55.0972 H       1  ZINC000156038173    0.0900
     34 H34       -10.5659   -1.0961   55.1802 H       1  ZINC000156038173    0.1100
     35 H35       -11.9519   -0.4542   54.2663 H       1  ZINC000156038173    0.1100
     36 H36        -6.1822    0.8379   53.6405 H       1  ZINC000156038173    0.0600
     37 H37        -6.0678    1.6993   52.0870 H       1  ZINC000156038173    0.0700
     38 H38        -6.8862    2.4638   53.4705 H       1  ZINC000156038173    0.0800
     39 H39        -8.6957   -0.8687   51.4892 H       1  ZINC000156038173    0.0700
     40 H40        -7.1244   -0.2468   50.9301 H       1  ZINC000156038173    0.0800
     41 H41        -7.2389   -1.1082   52.4835 H       1  ZINC000156038173    0.0700
     42 H42        -8.9312    2.8000   52.0749 H       1  ZINC000156038173    0.0800
     43 H43        -8.1127    2.0355   50.6914 H       1  ZINC000156038173    0.0700
     44 H44        -9.6840    1.4136   51.2507 H       1  ZINC000156038173    0.0600
     45 H45        -9.4323   -0.0856   59.0733 H       1  ZINC000156038173    0.4100
     46 H46        -8.8572   -0.5369   61.3480 H       1  ZINC000156038173    0.1400
     47 H47        -8.9083    0.5541   63.5539 H       1  ZINC000156038173    0.1500
     48 H48       -11.0628    1.0230   64.6481 H       1  ZINC000156038173    0.1500
@<TRIPOS>BOND
     1     1     2    1
     2     1    29    1
     3     1    30    1
     4     1    31    1
     5     2     3    1
     6     2    12   am
     7     3     4    1
     8     3    32    1
     9     3    33    1
    10     4     5    1
    11     4    34    1
    12     4    35    1
    13     5     6    2
    14     5     7    1
    15     7     8    1
    16     8     9    1
    17     8    10    1
    18     8    11    1
    19     9    36    1
    20     9    37    1
    21     9    38    1
    22    10    39    1
    23    10    40    1
    24    10    41    1
    25    11    42    1
    26    11    43    1
    27    11    44    1
    28    12    13    2
    29    12    14   am
    30    14    15    1
    31    14    45    1
    32    15    16    1
    33    15    17    1
    34    15    25    1
    35    17    23   ar
    36    17    18   ar
    37    18    19   ar
    38    18    46    1
    39    19    20   ar
    40    19    47    1
    41    20    21   ar
    42    20    48    1
    43    21    22    1
    44    21    23   ar
    45    23    24    1
    46    25    26    1
    47    25    27    1
    48    25    28    1
@<TRIPOS>SUBSTRUCTURE
     1 ZINC000156038173        1 TEMP              0 ****  ****    0 ROOT


##########                                Name:    ZINC000004598904
##########                DOCK_Rotatable_Bonds:                  13
##########                         Heavy_Atoms:                  30
##########                    Molecular_Weight:             412.442
##########                DOCK_Rotatable_Bonds:                  13
##########                       Formal_Charge:          -0.0300005
##########                     HBond_Acceptors:                   8
##########                        HBond_Donors:                   2
##########                         Heavy_Atoms:                  30
##########                          Grid_Score:          -26.822823
##########                     Grid_vdw_energy:          -24.429859
##########                      Grid_es_energy:           -2.392964
##########           Internal_energy_repulsive:          186.749817

@<TRIPOS>MOLECULE
ZINC000004598904
 54 55 1 0 0
SMALL
USER_CHARGES


@<TRIPOS>ATOM
      1 C1         -2.5783    5.9481   63.3320 C.3     1  ZINC000004598904   -0.1500
      2 C2         -1.0704    5.6947   63.2785 C.3     1  ZINC000004598904    0.0600
      3 O3         -0.7303    5.0634   62.0160 O.3     1  ZINC000004598904   -0.3500
      4 C4         -1.0222    5.7468   60.8920 C.2     1  ZINC000004598904    0.5100
      5 O5         -1.5463    6.8406   60.9649 O.2     1  ZINC000004598904   -0.5100
      6 C6         -0.7059    5.1671   59.5734 C.ar    1  ZINC000004598904   -0.1500
      7 C7         -0.1076    3.9064   59.4876 C.ar    1  ZINC000004598904   -0.0400
      8 C8          0.1863    3.3686   58.2551 C.ar    1  ZINC000004598904   -0.1400
      9 C9         -0.1112    4.0779   57.0956 C.ar    1  ZINC000004598904    0.1800
     10 N10         0.1876    3.5298   55.8490 N.am    1  ZINC000004598904   -0.6700
     11 C11        -0.0999    4.2155   54.7250 C.2     1  ZINC000004598904    0.5200
     12 O12        -0.6183    5.3095   54.7978 O.2     1  ZINC000004598904   -0.5100
     13 C13         0.2231    3.6229   53.3775 C.3     1  ZINC000004598904   -0.1300
     14 C14        -0.8818    3.9851   52.3831 C.3     1  ZINC000004598904   -0.1300
     15 C15        -0.6159    3.3025   51.0661 C.2     1  ZINC000004598904    0.5200
     16 O16         0.5234    3.1637   50.6743 O.2     1  ZINC000004598904   -0.5100
     17 N17        -1.6441    2.8464   50.3237 N.am    1  ZINC000004598904   -0.6700
     18 C18        -1.3981    2.2149   49.1054 C.ar    1  ZINC000004598904    0.1800
     19 C19        -1.1790    2.9757   47.9611 C.ar    1  ZINC000004598904   -0.1400
     20 C20        -0.9357    2.3557   46.7565 C.ar    1  ZINC000004598904   -0.0300
     21 C21        -0.9085    0.9598   46.6837 C.ar    1  ZINC000004598904   -0.1500
     22 C22        -0.6477    0.2919   45.3951 C.2     1  ZINC000004598904    0.5100
     23 O23        -1.5425    0.1694   44.5824 O.2     1  ZINC000004598904   -0.5100
     24 O24         0.5829   -0.1826   45.1191 O.3     1  ZINC000004598904   -0.3600
     25 C25         1.7118    0.6212   45.5520 C.3     1  ZINC000004598904    0.0600
     26 C26         2.9459    0.2546   44.7253 C.3     1  ZINC000004598904   -0.1500
     27 C27        -1.1286    0.1986   47.8356 C.ar    1  ZINC000004598904   -0.0400
     28 C28        -1.3664    0.8254   49.0377 C.ar    1  ZINC000004598904   -0.1600
     29 C29        -0.7065    5.3330   57.1772 C.ar    1  ZINC000004598904   -0.1600
     30 C30        -1.0085    5.8746   58.4062 C.ar    1  ZINC000004598904   -0.0300
     31 H31        -3.1093    5.0001   63.2452 H       1  ZINC000004598904    0.0700
     32 H32        -2.8337    6.4221   64.2798 H       1  ZINC000004598904    0.0800
     33 H33        -2.8662    6.6025   62.5093 H       1  ZINC000004598904    0.0700
     34 H34        -0.5394    6.6427   63.3653 H       1  ZINC000004598904    0.0700
     35 H35        -0.7825    5.0403   64.1012 H       1  ZINC000004598904    0.0700
     36 H36         0.1239    3.3555   60.3872 H       1  ZINC000004598904    0.1400
     37 H37         0.6488    2.3949   58.1880 H       1  ZINC000004598904    0.1400
     38 H38         0.6022    2.6548   55.7908 H       1  ZINC000004598904    0.4200
     39 H39         1.1745    4.0206   53.0243 H       1  ZINC000004598904    0.1100
     40 H40         0.2923    2.5386   53.4646 H       1  ZINC000004598904    0.1100
     41 H41        -1.8447    3.6570   52.7744 H       1  ZINC000004598904    0.1100
     42 H42        -0.8985    5.0650   52.2357 H       1  ZINC000004598904    0.1100
     43 H43        -2.5554    2.9574   50.6372 H       1  ZINC000004598904    0.4200
     44 H44        -1.2001    4.0540   48.0181 H       1  ZINC000004598904    0.1400
     45 H45        -0.7665    2.9468   45.8686 H       1  ZINC000004598904    0.1400
     46 H46         1.4811    1.6772   45.4117 H       1  ZINC000004598904    0.0700
     47 H47         1.9109    0.4299   46.6064 H       1  ZINC000004598904    0.0700
     48 H48         3.7934    0.8581   45.0503 H       1  ZINC000004598904    0.0800
     49 H49         3.1767   -0.8014   44.8657 H       1  ZINC000004598904    0.0700
     50 H50         2.7468    0.4460   43.6708 H       1  ZINC000004598904    0.0700
     51 H51        -1.1086   -0.8799   47.7829 H       1  ZINC000004598904    0.1400
     52 H52        -1.5362    0.2381   49.9281 H       1  ZINC000004598904    0.1400
     53 H53        -0.9360    5.8807   56.2753 H       1  ZINC000004598904    0.1400
     54 H54        -1.4707    6.8487   58.4688 H       1  ZINC000004598904    0.1400
@<TRIPOS>BOND
     1     1     2    1
     2     1    31    1
     3     1    32    1
     4     1    33    1
     5     2     3    1
     6     2    34    1
     7     2    35    1
     8     3     4    1
     9     4     5    2
    10     4     6    1
    11     6    30   ar
    12     6     7   ar
    13     7     8   ar
    14     7    36    1
    15     8     9   ar
    16     8    37    1
    17     9    10    1
    18     9    29   ar
    19    10    11   am
    20    10    38    1
    21    11    12    2
    22    11    13    1
    23    13    14    1
    24    13    39    1
    25    13    40    1
    26    14    15    1
    27    14    41    1
    28    14    42    1
    29    15    16    2
    30    15    17   am
    31    17    18    1
    32    17    43    1
    33    18    28   ar
    34    18    19   ar
    35    19    20   ar
    36    19    44    1
    37    20    21   ar
    38    20    45    1
    39    21    22    1
    40    21    27   ar
    41    22    23    2
    42    22    24    1
    43    24    25    1
    44    25    26    1
    45    25    46    1
    46    25    47    1
    47    26    48    1
    48    26    49    1
    49    26    50    1
    50    27    28   ar
    51    27    51    1
    52    28    52    1
    53    29    30   ar
    54    29    53    1
    55    30    54    1
@<TRIPOS>SUBSTRUCTURE
     1 ZINC000004598904        1 TEMP              0 ****  ****    0 ROOT


##########                                Name:    ZINC000948289723
##########                DOCK_Rotatable_Bonds:                   6
##########                         Heavy_Atoms:                  24
##########                    Molecular_Weight:             331.415
##########                DOCK_Rotatable_Bonds:                   6
##########                       Formal_Charge:           0.0599999
##########                     HBond_Acceptors:                   6
##########                        HBond_Donors:                   1
##########                         Heavy_Atoms:                  24
##########                          Grid_Score:          -26.819687
##########                     Grid_vdw_energy:          -23.857689
##########                      Grid_es_energy:           -2.961997
##########           Internal_energy_repulsive:            7.426649

@<TRIPOS>MOLECULE
ZINC000948289723
 49 52 1 0 0
SMALL
USER_CHARGES


@<TRIPOS>ATOM
      1 C1        -18.6071   -2.4575   58.6331 C.3     1  ZINC000948289723   -0.1400
      2 C2        -17.3353   -3.0929   59.1986 C.3     1  ZINC000948289723   -0.1100
      3 C3        -16.2054   -2.0829   59.4591 C.3     1  ZINC000948289723   -0.1100
      4 C4        -15.9112   -2.8644   60.7505 C.3     1  ZINC000948289723   -0.1400
      5 C5        -15.5743   -1.9833   61.9258 C.2     1  ZINC000948289723    0.5400
      6 O6        -16.2961   -1.9700   62.9004 O.2     1  ZINC000948289723   -0.5300
      7 N7        -14.4710   -1.2100   61.8938 N.am    1  ZINC000948289723   -0.6200
      8 C8        -14.0258   -0.3075   62.9656 C.3     1  ZINC000948289723    0.1100
      9 C9        -12.7077    0.3445   62.4977 C.3     1  ZINC000948289723   -0.1100
     10 H10       -12.8971    1.3219   62.0540 H       1  ZINC000948289723    0.1000
     11 C11       -11.7194    0.4621   63.6597 C.3     1  ZINC000948289723   -0.1400
     12 C12       -12.1874   -0.6522   61.4283 C.3     1  ZINC000948289723    0.1400
     13 H13       -11.6585   -1.4837   61.8939 H       1  ZINC000948289723    0.1200
     14 N14       -11.3351    0.0262   60.4487 N.am    1  ZINC000948289723   -0.7100
     15 C15       -10.7741   -0.6747   59.4436 C.2     1  ZINC000948289723    0.6100
     16 O16       -10.9766   -1.8698   59.3490 O.2     1  ZINC000948289723   -0.5000
     17 C17        -9.9145    0.0080   58.4583 C.2     1  ZINC000948289723   -0.0900
     18 C18        -9.5407    1.3241   58.4652 C.2     1  ZINC000948289723   -0.1400
     19 C19        -8.7302    1.4514   57.3152 C.2     1  ZINC000948289723    0.0500
     20 C20        -8.0439    2.7026   56.8309 C.3     1  ZINC000948289723   -0.0900
     21 C21        -6.6396    2.5551   56.2416 C.3     1  ZINC000948289723   -0.1600
     22 C22        -7.8272    2.8511   55.3235 C.3     1  ZINC000948289723   -0.1600
     23 N23        -8.6916    0.2770   56.7561 N.2     1  ZINC000948289723   -0.3300
     24 O24        -9.3345   -0.5395   57.3735 O.3     1  ZINC000948289723    0.1200
     25 C25       -13.5072   -1.1337   60.7808 C.3     1  ZINC000948289723    0.0900
     26 C26       -17.3812   -3.3147   60.7196 C.3     1  ZINC000948289723   -0.1200
     27 H27       -18.7654   -1.4849   59.0990 H       1  ZINC000948289723    0.0600
     28 H28       -18.5022   -2.3316   57.5556 H       1  ZINC000948289723    0.0600
     29 H29       -19.4599   -3.1035   58.8421 H       1  ZINC000948289723    0.0600
     30 H30       -17.0164   -3.9721   58.6386 H       1  ZINC000948289723    0.0900
     31 H31       -15.3995   -2.1307   58.7266 H       1  ZINC000948289723    0.0700
     32 H32       -16.5596   -1.0671   59.6345 H       1  ZINC000948289723    0.1000
     33 H33       -15.2004   -3.6796   60.6152 H       1  ZINC000948289723    0.1100
     34 H34       -14.7785    0.4615   63.1394 H       1  ZINC000948289723    0.0800
     35 H35       -13.8544   -0.8748   63.8805 H       1  ZINC000948289723    0.0800
     36 H36       -11.5208   -0.5283   64.0694 H       1  ZINC000948289723    0.0600
     37 H37       -10.7879    0.9007   63.3017 H       1  ZINC000948289723    0.0600
     38 H38       -12.1454    1.0976   64.4361 H       1  ZINC000948289723    0.0700
     39 H39       -11.1746    0.9799   60.5236 H       1  ZINC000948289723    0.4100
     40 H40        -9.8041    2.0876   59.1821 H       1  ZINC000948289723    0.1800
     41 H41        -8.2588    3.6071   57.4000 H       1  ZINC000948289723    0.1300
     42 H42        -5.9303    3.3625   56.4231 H       1  ZINC000948289723    0.1100
     43 H43        -6.2122    1.5531   56.2044 H       1  ZINC000948289723    0.1000
     44 H44        -8.1811    2.0439   54.6823 H       1  ZINC000948289723    0.1000
     45 H45        -7.8992    3.8533   54.9011 H       1  ZINC000948289723    0.1100
     46 H46       -13.3704   -2.1143   60.3250 H       1  ZINC000948289723    0.0900
     47 H47       -13.8500   -0.4135   60.0379 H       1  ZINC000948289723    0.0800
     48 H48       -18.0570   -2.6357   61.2397 H       1  ZINC000948289723    0.0900
     49 H49       -17.5247   -4.3569   61.0048 H       1  ZINC000948289723    0.0800
@<TRIPOS>BOND
     1     1     2    1
     2     1    27    1
     3     1    28    1
     4     1    29    1
     5     2    26    1
     6     2     3    1
     7     2    30    1
     8     3     4    1
     9     3    31    1
    10     3    32    1
    11     4     5    1
    12     4    26    1
    13     4    33    1
    14     5     6    2
    15     5     7   am
    16     7    25    1
    17     7     8    1
    18     8     9    1
    19     8    34    1
    20     8    35    1
    21     9    10    1
    22     9    11    1
    23     9    12    1
    24    11    36    1
    25    11    37    1
    26    11    38    1
    27    12    13    1
    28    12    14    1
    29    12    25    1
    30    14    15   am
    31    14    39    1
    32    15    16    2
    33    15    17    1
    34    17    24    1
    35    17    18    2
    36    18    19    1
    37    18    40    1
    38    19    20    1
    39    19    23    2
    40    20    22    1
    41    20    21    1
    42    20    41    1
    43    21    22    1
    44    21    42    1
    45    21    43    1
    46    22    44    1
    47    22    45    1
    48    23    24    1
    49    25    46    1
    50    25    47    1
    51    26    48    1
    52    26    49    1
@<TRIPOS>SUBSTRUCTURE
     1 ZINC000948289723        1 TEMP              0 ****  ****    0 ROOT


##########                                Name:    ZINC000279974681
##########                DOCK_Rotatable_Bonds:                   4
##########                         Heavy_Atoms:                  23
##########                    Molecular_Weight:              338.79
##########                DOCK_Rotatable_Bonds:                   4
##########                       Formal_Charge:           0.0100008
##########                     HBond_Acceptors:                   7
##########                        HBond_Donors:                   1
##########                         Heavy_Atoms:                  23
##########                          Grid_Score:          -26.814070
##########                     Grid_vdw_energy:          -26.090977
##########                      Grid_es_energy:           -0.723093
##########           Internal_energy_repulsive:           17.395185

@<TRIPOS>MOLECULE
ZINC000279974681
 42 45 1 0 0
SMALL
USER_CHARGES


@<TRIPOS>ATOM
      1 C1        -12.7698    0.3526   53.2686 C.3     1  ZINC000279974681   -0.1400
      2 C2        -11.3845    0.1222   53.8760 C.3     1  ZINC000279974681    0.0700
      3 H3        -11.2364   -0.9436   54.0506 H       1  ZINC000279974681    0.0600
      4 C4        -11.2757    0.8789   55.2047 C.3     1  ZINC000279974681    0.1000
      5 N5         -9.8831    0.7964   55.6729 N.am    1  ZINC000279974681   -0.6300
      6 C6         -9.5958    0.4030   56.9296 C.2     1  ZINC000279974681    0.7100
      7 O7         -8.4386    0.3414   57.2978 O.2     1  ZINC000279974681   -0.5600
      8 N8        -10.5912    0.0780   57.7782 N.am    1  ZINC000279974681   -0.6700
      9 C9        -10.2922   -0.3312   59.0854 C.ar    1  ZINC000279974681    0.2000
     10 C10       -10.4062    0.5669   60.1370 C.ar    1  ZINC000279974681   -0.1200
     11 C11       -10.1113    0.1620   61.4283 C.ar    1  ZINC000279974681    0.0700
     12 C12        -9.7004   -1.1466   61.6691 C.ar    1  ZINC000279974681    0.0200
     13 C13        -9.5871   -2.0407   60.6167 C.ar    1  ZINC000279974681   -0.0700
     14 C14        -9.8873   -1.6377   59.3287 C.ar    1  ZINC000279974681   -0.0700
     15 Cl15       -9.7440   -2.7607   58.0128 Cl      1  ZINC000279974681   -0.0500
     16 O16        -9.4733   -1.2928   63.0082 O.3     1  ZINC000279974681   -0.3000
     17 C17        -9.3548    0.0453   63.5264 C.3     1  ZINC000279974681    0.2100
     18 O18       -10.1418    0.8355   62.6156 O.3     1  ZINC000279974681   -0.3000
     19 C19        -8.8134    1.1557   54.7285 C.3     1  ZINC000279974681    0.0800
     20 C20        -9.0423    0.3855   53.4229 C.3     1  ZINC000279974681    0.1100
     21 H21        -8.8846   -0.6791   53.5959 H       1  ZINC000279974681    0.0700
     22 C22        -8.0613    0.8811   52.3586 C.3     1  ZINC000279974681   -0.1600
     23 C23        -7.1188    2.0233   52.7435 C.3     1  ZINC000279974681   -0.1700
     24 C24        -6.5738    0.6025   52.5843 C.3     1  ZINC000279974681   -0.1600
     25 O25       -10.3828    0.6024   52.9762 O.3     1  ZINC000279974681   -0.3600
     26 H26       -12.8459   -0.1842   52.3230 H       1  ZINC000279974681    0.0700
     27 H27       -13.5331   -0.0121   53.9559 H       1  ZINC000279974681    0.0800
     28 H28       -12.9173    1.4185   53.0942 H       1  ZINC000279974681    0.0700
     29 H29       -11.5518    1.9228   55.0563 H       1  ZINC000279974681    0.0800
     30 H30       -11.9382    0.4243   55.9413 H       1  ZINC000279974681    0.1100
     31 H31       -11.5143    0.1272   57.4844 H       1  ZINC000279974681    0.4100
     32 H32       -10.7246    1.5816   59.9484 H       1  ZINC000279974681    0.1800
     33 H33        -9.2681   -3.0555   60.8035 H       1  ZINC000279974681    0.1500
     34 H34        -9.7635    0.1029   64.5351 H       1  ZINC000279974681    0.1400
     35 H35        -8.3143    0.3698   63.5144 H       1  ZINC000279974681    0.0900
     36 H36        -8.8416    2.2275   54.5322 H       1  ZINC000279974681    0.0900
     37 H37        -7.8454    0.8846   55.1498 H       1  ZINC000279974681    0.0900
     38 H38        -8.4281    0.8550   51.3325 H       1  ZINC000279974681    0.1100
     39 H39        -6.8655    2.7489   51.9706 H       1  ZINC000279974681    0.1000
     40 H40        -7.1976    2.4216   53.7550 H       1  ZINC000279974681    0.1000
     41 H41        -6.2942    0.0661   53.4911 H       1  ZINC000279974681    0.1000
     42 H42        -5.9621    0.3934   51.7067 H       1  ZINC000279974681    0.1000
@<TRIPOS>BOND
     1     1     2    1
     2     1    26    1
     3     1    27    1
     4     1    28    1
     5     2     3    1
     6     2    25    1
     7     2     4    1
     8     4     5    1
     9     4    29    1
    10     4    30    1
    11     5     6   am
    12     5    19    1
    13     6     7    2
    14     6     8   am
    15     8     9    1
    16     8    31    1
    17     9    14   ar
    18     9    10   ar
    19    10    11   ar
    20    10    32    1
    21    11    18    1
    22    11    12   ar
    23    12    13   ar
    24    12    16    1
    25    13    14   ar
    26    13    33    1
    27    14    15    1
    28    16    17    1
    29    17    18    1
    30    17    34    1
    31    17    35    1
    32    19    20    1
    33    19    36    1
    34    19    37    1
    35    20    21    1
    36    20    22    1
    37    20    25    1
    38    22    24    1
    39    22    23    1
    40    22    38    1
    41    23    24    1
    42    23    39    1
    43    23    40    1
    44    24    41    1
    45    24    42    1
@<TRIPOS>SUBSTRUCTURE
     1 ZINC000279974681        1 TEMP              0 ****  ****    0 ROOT


##########                                Name:    ZINC000676204775
##########                DOCK_Rotatable_Bonds:                   4
##########                         Heavy_Atoms:                  25
##########                    Molecular_Weight:             359.452
##########                DOCK_Rotatable_Bonds:                   4
##########                       Formal_Charge:          0.00999978
##########                     HBond_Acceptors:                   8
##########                        HBond_Donors:                   2
##########                         Heavy_Atoms:                  25
##########                          Grid_Score:          -26.801134
##########                     Grid_vdw_energy:          -24.864483
##########                      Grid_es_energy:           -1.936651
##########           Internal_energy_repulsive:            7.344102

@<TRIPOS>MOLECULE
ZINC000676204775
 46 49 1 0 0
SMALL
USER_CHARGES


@<TRIPOS>ATOM
      1 C1         -9.9610    1.7766   65.6701 C.3     1  ZINC000676204775   -0.1600
      2 C2         -9.4517    0.5795   64.8647 C.3     1  ZINC000676204775    0.1600
      3 C3         -8.9792   -0.5158   65.8228 C.3     1  ZINC000676204775   -0.1600
      4 N4        -10.5336    0.0602   64.0247 N.pl3   1  ZINC000676204775   -0.3900
      5 N5        -11.9008    0.1889   64.2909 N.2     1  ZINC000676204775   -0.2500
      6 C6        -12.5958   -0.3820   63.3489 C.2     1  ZINC000676204775    0.0900
      7 C7        -11.6587   -0.9365   62.3773 C.ar    1  ZINC000676204775   -0.2100
      8 C8        -11.8050   -1.6468   61.1808 C.ar    1  ZINC000676204775    0.0800
      9 C9        -10.6959   -2.0345   60.4860 C.ar    1  ZINC000676204775   -0.7200
     10 S10       -10.8786   -2.9287   58.9788 S.o2    1  ZINC000676204775    2.6900
     11 O11        -9.5835   -3.3991   58.6318 O.2     1  ZINC000676204775   -0.9300
     12 O12       -11.9964   -3.7882   59.1552 O.2     1  ZINC000676204775   -0.9600
     13 N13       -11.3082   -1.8368   57.8102 N.am    1  ZINC000676204775   -1.1100
     14 C14       -10.4197   -0.7161   57.4926 C.3     1  ZINC000676204775    0.2400
     15 H15        -9.3835   -1.0090   57.6619 H       1  ZINC000676204775    0.1000
     16 C16       -10.7684    0.4874   58.3772 C.3     1  ZINC000676204775   -0.1200
     17 C17       -10.0125    1.7247   57.8879 C.3     1  ZINC000676204775   -0.1200
     18 C18       -10.6122    2.2064   56.5608 C.3     1  ZINC000676204775   -0.0400
     19 C19       -10.6975    1.0250   55.6262 C.2     1  ZINC000676204775   -0.2300
     20 C20       -10.8662    1.0275   54.2910 C.2     1  ZINC000676204775    0.0600
     21 N21       -10.8799   -0.2596   53.8778 N.pl3   1  ZINC000676204775   -0.4800
     22 N22       -10.7138   -1.0785   55.0051 N.2     1  ZINC000676204775   -0.2400
     23 C23       -10.6054   -0.3119   56.0501 C.2     1  ZINC000676204775    0.0500
     24 C24        -9.4243   -1.7305   60.9558 C.ar    1  ZINC000676204775    0.0100
     25 C25        -9.2558   -1.0380   62.1215 C.ar    1  ZINC000676204775   -0.1500
     26 C26       -10.3688   -0.6245   62.8490 C.ar    1  ZINC000676204775    0.1700
     27 H27       -10.2976    2.5570   64.9876 H       1  ZINC000676204775    0.0600
     28 H28       -10.7922    1.4625   66.3013 H       1  ZINC000676204775    0.0700
     29 H29        -9.1560    2.1630   66.2952 H       1  ZINC000676204775    0.0800
     30 H30        -8.6203    0.8936   64.2335 H       1  ZINC000676204775    0.1000
     31 H31        -9.8105   -0.8298   66.4540 H       1  ZINC000676204775    0.0700
     32 H32        -8.6163   -1.3686   65.2491 H       1  ZINC000676204775    0.0600
     33 H33        -8.1741   -0.1293   66.4478 H       1  ZINC000676204775    0.0800
     34 H34       -13.6731   -0.4357   63.2964 H       1  ZINC000676204775    0.2000
     35 H35       -12.7901   -1.8873   60.8092 H       1  ZINC000676204775    0.1500
     36 H36       -12.1482   -1.9392   57.3359 H       1  ZINC000676204775    0.4200
     37 H37       -11.8409    0.6747   58.3279 H       1  ZINC000676204775    0.0800
     38 H38       -10.4854    0.2738   59.4079 H       1  ZINC000676204775    0.0800
     39 H39       -10.0946    2.5173   58.6316 H       1  ZINC000676204775    0.0700
     40 H40        -8.9621    1.4735   57.7412 H       1  ZINC000676204775    0.0700
     41 H41       -11.6092    2.6116   56.7333 H       1  ZINC000676204775    0.0700
     42 H42        -9.9726    2.9742   56.1255 H       1  ZINC000676204775    0.0700
     43 H43       -10.9716    1.9000   53.6633 H       1  ZINC000676204775    0.1800
     44 H44       -10.9859   -0.5636   52.9628 H       1  ZINC000676204775    0.4400
     45 H45        -8.5583   -2.0459   60.3928 H       1  ZINC000676204775    0.1500
     46 H46        -8.2617   -0.8081   62.4755 H       1  ZINC000676204775    0.1300
@<TRIPOS>BOND
     1     1     2    1
     2     1    27    1
     3     1    28    1
     4     1    29    1
     5     2     3    1
     6     2     4    1
     7     2    30    1
     8     3    31    1
     9     3    32    1
    10     3    33    1
    11     4    26    1
    12     4     5    1
    13     5     6    2
    14     6     7    1
    15     6    34    1
    16     7    26   ar
    17     7     8   ar
    18     8     9   ar
    19     8    35    1
    20     9    10    1
    21     9    24   ar
    22    10    11    2
    23    10    12    2
    24    10    13   am
    25    13    14    1
    26    13    36    1
    27    14    15    1
    28    14    23    1
    29    14    16    1
    30    16    17    1
    31    16    37    1
    32    16    38    1
    33    17    18    1
    34    17    39    1
    35    17    40    1
    36    18    19    1
    37    18    41    1
    38    18    42    1
    39    19    23    1
    40    19    20    2
    41    20    21    1
    42    20    43    1
    43    21    22    1
    44    21    44    1
    45    22    23    2
    46    24    25   ar
    47    24    45    1
    48    25    26   ar
    49    25    46    1
@<TRIPOS>SUBSTRUCTURE
     1 ZINC000676204775        1 TEMP              0 ****  ****    0 ROOT


##########                                Name:    ZINC000179211660
##########                DOCK_Rotatable_Bonds:                   6
##########                         Heavy_Atoms:                  23
##########                    Molecular_Weight:             385.208
##########                DOCK_Rotatable_Bonds:                   6
##########                       Formal_Charge:        -1.78814e-07
##########                     HBond_Acceptors:                   6
##########                        HBond_Donors:                   1
##########                         Heavy_Atoms:                  23
##########                          Grid_Score:          -26.788761
##########                     Grid_vdw_energy:          -25.488659
##########                      Grid_es_energy:           -1.300103
##########           Internal_energy_repulsive:           15.291080

@<TRIPOS>MOLECULE
ZINC000179211660
 38 39 1 0 0
SMALL
USER_CHARGES


@<TRIPOS>ATOM
      1 C1         -7.5480    1.6305   56.8734 C.3     1  ZINC000179211660    0.0300
      2 O2         -8.1895    0.4670   57.3995 O.3     1  ZINC000179211660   -0.2700
      3 C3         -9.5470    0.4866   57.4634 C.ar    1  ZINC000179211660    0.1500
      4 C4        -10.2451    1.6162   57.0627 C.ar    1  ZINC000179211660   -0.2200
      5 C5        -11.6251    1.6334   57.1283 C.ar    1  ZINC000179211660   -0.0700
      6 C6        -12.3101    0.5263   57.5931 C.ar    1  ZINC000179211660   -0.1700
      7 C7        -11.6163   -0.6010   57.9936 C.ar    1  ZINC000179211660   -0.0700
      8 C8        -10.2370   -0.6255   57.9243 C.ar    1  ZINC000179211660   -0.1500
      9 C9         -9.4817   -1.8544   58.3604 C.3     1  ZINC000179211660    0.1800
     10 N10       -10.2646   -2.5778   59.3655 N.am    1  ZINC000179211660   -0.6200
     11 C11       -10.9225   -3.8385   59.0134 C.3     1  ZINC000179211660    0.0700
     12 C12       -10.3795   -2.0834   60.6140 C.2     1  ZINC000179211660    0.7000
     13 O13       -11.0280   -2.6844   61.4486 O.2     1  ZINC000179211660   -0.5300
     14 N14        -9.7756   -0.9227   60.9374 N.am    1  ZINC000179211660   -0.6800
     15 C15        -9.8951   -0.4086   62.2352 C.ar    1  ZINC000179211660    0.1900
     16 C16        -9.3109   -1.0749   63.3029 C.ar    1  ZINC000179211660   -0.1400
     17 C17        -9.4299   -0.5648   64.5837 C.ar    1  ZINC000179211660    0.1500
     18 F18        -8.8613   -1.2130   65.6239 F       1  ZINC000179211660   -0.1100
     19 C19       -10.1311    0.6100   64.8002 C.ar    1  ZINC000179211660   -0.1300
     20 Br20      -10.2913    1.3046   66.5518 Br      1  ZINC000179211660   -0.0100
     21 C21       -10.7142    1.2764   63.7369 C.ar    1  ZINC000179211660   -0.0700
     22 C22       -10.5944    0.7732   62.4547 C.ar    1  ZINC000179211660    0.0600
     23 F23       -11.1639    1.4244   61.4170 F       1  ZINC000179211660   -0.1300
     24 H24        -6.4680    1.4834   56.8781 H       1  ZINC000179211660    0.1000
     25 H25        -7.8870    1.8016   55.8517 H       1  ZINC000179211660    0.0500
     26 H26        -7.7998    2.4940   57.4891 H       1  ZINC000179211660    0.0500
     27 H27        -9.7104    2.4817   56.7001 H       1  ZINC000179211660    0.1300
     28 H28       -12.1691    2.5128   56.8165 H       1  ZINC000179211660    0.1200
     29 H29       -13.3888    0.5418   57.6440 H       1  ZINC000179211660    0.1200
     30 H30       -12.1537   -1.4646   58.3568 H       1  ZINC000179211660    0.1300
     31 H31        -9.3106   -2.5003   57.4992 H       1  ZINC000179211660    0.0900
     32 H32        -8.5240   -1.5593   58.7892 H       1  ZINC000179211660    0.1000
     33 H33       -10.2442   -4.6692   59.2086 H       1  ZINC000179211660    0.0600
     34 H34       -11.8247   -3.9574   59.6133 H       1  ZINC000179211660    0.0600
     35 H35       -11.1879   -3.8270   57.9563 H       1  ZINC000179211660    0.0800
     36 H36        -9.2583   -0.4432   60.2715 H       1  ZINC000179211660    0.4100
     37 H37        -8.7641   -1.9908   63.1346 H       1  ZINC000179211660    0.1800
     38 H38       -11.2603    2.1922   63.9083 H       1  ZINC000179211660    0.1600
@<TRIPOS>BOND
     1     1     2    1
     2     1    24    1
     3     1    25    1
     4     1    26    1
     5     2     3    1
     6     3     8   ar
     7     3     4   ar
     8     4     5   ar
     9     4    27    1
    10     5     6   ar
    11     5    28    1
    12     6     7   ar
    13     6    29    1
    14     7     8   ar
    15     7    30    1
    16     8     9    1
    17     9    10    1
    18     9    31    1
    19     9    32    1
    20    10    11    1
    21    10    12   am
    22    11    33    1
    23    11    34    1
    24    11    35    1
    25    12    13    2
    26    12    14   am
    27    14    15    1
    28    14    36    1
    29    15    22   ar
    30    15    16   ar
    31    16    17   ar
    32    16    37    1
    33    17    18    1
    34    17    19   ar
    35    19    20    1
    36    19    21   ar
    37    21    22   ar
    38    21    38    1
    39    22    23    1
@<TRIPOS>SUBSTRUCTURE
     1 ZINC000179211660        1 TEMP              0 ****  ****    0 ROOT


##########                                Name:    ZINC001018118384
##########                DOCK_Rotatable_Bonds:                   5
##########                         Heavy_Atoms:                  25
##########                    Molecular_Weight:             347.374
##########                DOCK_Rotatable_Bonds:                   5
##########                       Formal_Charge:           0.0299997
##########                     HBond_Acceptors:                   9
##########                        HBond_Donors:                   2
##########                         Heavy_Atoms:                  25
##########                          Grid_Score:          -26.783222
##########                     Grid_vdw_energy:          -24.504154
##########                      Grid_es_energy:           -2.279067
##########           Internal_energy_repulsive:           97.081398

@<TRIPOS>MOLECULE
ZINC001018118384
 46 48 1 0 0
SMALL
USER_CHARGES


@<TRIPOS>ATOM
      1 C1          3.7090    0.3509   52.5905 C.3     1  ZINC001018118384   -0.0700
      2 C2          3.0459    1.3718   51.7022 C.2     1  ZINC001018118384    0.2200
      3 N3          3.2544    1.5117   50.4249 N.2     1  ZINC001018118384   -0.4600
      4 C4          2.4836    2.5293   49.9631 C.2     1  ZINC001018118384   -0.0700
      5 C5          2.4206    3.0124   48.5728 C.2     1  ZINC001018118384    0.6100
      6 O6          3.0059    4.0303   48.2555 O.2     1  ZINC001018118384   -0.5400
      7 N7          1.7143    2.3265   47.6524 N.am    1  ZINC001018118384   -0.5900
      8 C8          0.9971    1.0985   48.0218 C.3     1  ZINC001018118384    0.0700
      9 C9         -0.4669    1.2344   47.5917 C.3     1  ZINC001018118384    0.1300
     10 H10        -0.9879    0.2942   47.7727 H       1  ZINC001018118384    0.1100
     11 N11        -1.1058    2.3037   48.3628 N.am    1  ZINC001018118384   -0.7000
     12 C12        -1.8306    2.0036   49.4587 C.2     1  ZINC001018118384    0.6000
     13 O13        -1.9554    0.8462   49.8064 O.2     1  ZINC001018118384   -0.4900
     14 C14        -2.4755    3.0856   50.2398 C.2     1  ZINC001018118384    0.0300
     15 C15        -2.3046    4.4259   50.0587 C.2     1  ZINC001018118384   -0.2300
     16 C16        -3.1362    5.0164   51.0516 C.2     1  ZINC001018118384    0.4800
     17 O17        -3.2996    6.2066   51.2627 O.2     1  ZINC001018118384   -0.5200
     18 N18        -3.7064    3.9870   51.7096 N.am    1  ZINC001018118384   -0.4500
     19 C19        -4.6472    4.1313   52.8233 C.3     1  ZINC001018118384    0.1100
     20 O20        -3.3410    2.9286   51.2529 O.3     1  ZINC001018118384    0.0000
     21 C21        -0.5271    1.5729   46.1005 C.3     1  ZINC001018118384   -0.1300
     22 C22         0.1758    2.9091   45.8503 C.3     1  ZINC001018118384   -0.1300
     23 C23         1.6421    2.7956   46.2620 C.3     1  ZINC001018118384    0.1400
     24 H24         2.1491    2.0804   45.6143 H       1  ZINC001018118384    0.0700
     25 C25         2.3160    4.1640   46.1416 C.3     1  ZINC001018118384   -0.1400
     26 C26         1.7776    3.0229   51.0210 C.2     1  ZINC001018118384    0.0400
     27 N27         2.1295    2.2907   52.1041 N.pl3   1  ZINC001018118384   -0.5600
     28 H28         3.1126   -0.5614   52.6036 H       1  ZINC001018118384    0.0900
     29 H29         4.7049    0.1283   52.2076 H       1  ZINC001018118384    0.1000
     30 H30         3.7889    0.7473   53.6027 H       1  ZINC001018118384    0.0800
     31 H31         1.4489    0.2452   47.5159 H       1  ZINC001018118384    0.0800
     32 H32         1.0492    0.9556   49.1011 H       1  ZINC001018118384    0.1500
     33 H33        -1.0072    3.2277   48.0845 H       1  ZINC001018118384    0.4100
     34 H34        -1.6819    4.9242   49.3307 H       1  ZINC001018118384    0.1900
     35 H35        -5.6648    4.1771   52.4356 H       1  ZINC001018118384    0.0800
     36 H36        -4.5516    3.2764   53.4928 H       1  ZINC001018118384    0.0900
     37 H37        -4.4250    5.0476   53.3701 H       1  ZINC001018118384    0.1100
     38 H38        -0.0300    0.7887   45.5297 H       1  ZINC001018118384    0.0900
     39 H39        -1.5683    1.6459   45.7864 H       1  ZINC001018118384    0.0800
     40 H40         0.1122    3.1611   44.7917 H       1  ZINC001018118384    0.0800
     41 H41        -0.3055    3.6894   46.4399 H       1  ZINC001018118384    0.0600
     42 H42         1.7984    4.8811   46.7785 H       1  ZINC001018118384    0.0700
     43 H43         3.3571    4.0850   46.4548 H       1  ZINC001018118384    0.0800
     44 H44         2.2728    4.5005   45.1057 H       1  ZINC001018118384    0.0400
     45 H45         1.0699    3.8384   50.9980 H       1  ZINC001018118384    0.1900
     46 H46         1.7928    2.4060   53.0064 H       1  ZINC001018118384    0.4300
@<TRIPOS>BOND
     1     1     2    1
     2     1    28    1
     3     1    29    1
     4     1    30    1
     5     2    27    1
     6     2     3    2
     7     3     4    1
     8     4     5    1
     9     4    26    2
    10     5     6    2
    11     5     7   am
    12     7    23    1
    13     7     8    1
    14     8     9    1
    15     8    31    1
    16     8    32    1
    17     9    10    1
    18     9    11    1
    19     9    21    1
    20    11    12   am
    21    11    33    1
    22    12    13    2
    23    12    14    1
    24    14    20    1
    25    14    15    2
    26    15    16    1
    27    15    34    1
    28    16    17    2
    29    16    18   am
    30    18    19    1
    31    18    20    1
    32    19    35    1
    33    19    36    1
    34    19    37    1
    35    21    22    1
    36    21    38    1
    37    21    39    1
    38    22    23    1
    39    22    40    1
    40    22    41    1
    41    23    24    1
    42    23    25    1
    43    25    42    1
    44    25    43    1
    45    25    44    1
    46    26    27    1
    47    26    45    1
    48    27    46    1
@<TRIPOS>SUBSTRUCTURE
     1 ZINC001018118384        1 TEMP              0 ****  ****    0 ROOT


##########                                Name:    ZINC000949401225
##########                DOCK_Rotatable_Bonds:                   7
##########                         Heavy_Atoms:                  24
##########                    Molecular_Weight:             332.403
##########                DOCK_Rotatable_Bonds:                   7
##########                       Formal_Charge:                0.03
##########                     HBond_Acceptors:                   7
##########                        HBond_Donors:                   1
##########                         Heavy_Atoms:                  24
##########                          Grid_Score:          -26.773655
##########                     Grid_vdw_energy:          -25.500553
##########                      Grid_es_energy:           -1.273102
##########           Internal_energy_repulsive:            9.542968

@<TRIPOS>MOLECULE
ZINC000949401225
 48 50 1 0 0
SMALL
USER_CHARGES


@<TRIPOS>ATOM
      1 C1         -3.7850    5.1562   58.0565 C.3     1  ZINC000949401225    0.0700
      2 N2         -2.9525    4.7700   56.9146 N.pl3   1  ZINC000949401225   -0.4500
      3 C3         -1.6619    4.3359   57.0019 C.2     1  ZINC000949401225   -0.0100
      4 C4         -1.2078    4.0707   55.7641 C.2     1  ZINC000949401225   -0.1700
      5 C5         -2.3132    4.3677   54.8468 C.2     1  ZINC000949401225   -0.2400
      6 C6         -2.3062    4.2352   53.3801 C.2     1  ZINC000949401225    0.5900
      7 O7         -3.3003    4.5184   52.7392 O.2     1  ZINC000949401225   -0.5500
      8 N8         -1.1982    3.8002   52.7482 N.am    1  ZINC000949401225   -0.7300
      9 C9         -1.1906    3.6701   51.2890 C.3     1  ZINC000949401225    0.1200
     10 C10         0.2273    3.9031   50.7634 C.3     1  ZINC000949401225    0.1200
     11 H11         0.5411    4.9438   50.8452 H       1  ZINC000949401225    0.1000
     12 C12         1.2563    2.9089   51.3192 C.3     1  ZINC000949401225   -0.1500
     13 C13         1.8118    2.9593   49.8892 C.3     1  ZINC000949401225    0.1000
     14 N14         0.4612    3.3237   49.4321 N.am    1  ZINC000949401225   -0.6400
     15 C15        -0.2489    3.1852   48.2949 C.2     1  ZINC000949401225    0.5500
     16 O16        -1.3833    3.6097   48.2328 O.2     1  ZINC000949401225   -0.5200
     17 C17         0.3669    2.5028   47.1006 C.3     1  ZINC000949401225   -0.1400
     18 C18        -0.7328    1.8380   46.2701 C.3     1  ZINC000949401225    0.1500
     19 H19        -1.6544    2.4167   46.3332 H       1  ZINC000949401225    0.0900
     20 C20        -0.2844    1.7058   44.7976 C.3     1  ZINC000949401225   -0.1200
     21 C21        -0.9225    0.3565   44.3938 C.3     1  ZINC000949401225   -0.1600
     22 C22        -1.0763   -0.3876   45.7019 C.2     1  ZINC000949401225    0.5200
     23 O23        -1.2749   -1.5797   45.8039 O.2     1  ZINC000949401225   -0.5300
     24 N24        -0.9619    0.4655   46.7364 N.am    1  ZINC000949401225   -0.6200
     25 C25        -1.0517    0.0733   48.1450 C.3     1  ZINC000949401225    0.0900
     26 C26        -3.3537    4.7871   55.6292 C.2     1  ZINC000949401225    0.0800
     27 H27        -4.3189    4.2821   58.4291 H       1  ZINC000949401225    0.0800
     28 H28        -3.1524    5.5598   58.8472 H       1  ZINC000949401225    0.0900
     29 H29        -4.5027    5.9143   57.7430 H       1  ZINC000949401225    0.0900
     30 H30        -1.0973    4.2237   57.9157 H       1  ZINC000949401225    0.1700
     31 H31        -0.2248    3.7109   55.4984 H       1  ZINC000949401225    0.1500
     32 H32        -0.4058    3.5732   53.2594 H       1  ZINC000949401225    0.4000
     33 H33        -1.5209    2.6690   51.0117 H       1  ZINC000949401225    0.0700
     34 H34        -1.8649    4.4083   50.8548 H       1  ZINC000949401225    0.0900
     35 H35         1.9224    3.3295   52.0725 H       1  ZINC000949401225    0.1000
     36 H36         0.8372    1.9434   51.6021 H       1  ZINC000949401225    0.1000
     37 H37         2.5482    3.7485   49.7371 H       1  ZINC000949401225    0.0900
     38 H38         2.1490    1.9906   49.5201 H       1  ZINC000949401225    0.0800
     39 H39         0.8882    3.2398   46.4899 H       1  ZINC000949401225    0.1000
     40 H40         1.0741    1.7458   47.4394 H       1  ZINC000949401225    0.1000
     41 H41        -0.6821    2.5216   44.1940 H       1  ZINC000949401225    0.1000
     42 H42         0.8021    1.6612   44.7233 H       1  ZINC000949401225    0.0800
     43 H43        -1.8958    0.5183   43.9303 H       1  ZINC000949401225    0.1100
     44 H44        -0.2638   -0.1903   43.7190 H       1  ZINC000949401225    0.1000
     45 H45        -1.1379   -1.0110   48.2155 H       1  ZINC000949401225    0.0800
     46 H46        -0.1554    0.4015   48.6714 H       1  ZINC000949401225    0.0600
     47 H47        -1.9286    0.5376   48.5963 H       1  ZINC000949401225    0.0600
     48 H48        -4.3290    5.0874   55.2757 H       1  ZINC000949401225    0.1800
@<TRIPOS>BOND
     1     1     2    1
     2     1    27    1
     3     1    28    1
     4     1    29    1
     5     2    26    1
     6     2     3    1
     7     3     4    2
     8     3    30    1
     9     4     5    1
    10     4    31    1
    11     5     6    1
    12     5    26    2
    13     6     7    2
    14     6     8   am
    15     8     9    1
    16     8    32    1
    17     9    10    1
    18     9    33    1
    19     9    34    1
    20    10    11    1
    21    10    14    1
    22    10    12    1
    23    12    13    1
    24    12    35    1
    25    12    36    1
    26    13    14    1
    27    13    37    1
    28    13    38    1
    29    14    15   am
    30    15    16    2
    31    15    17    1
    32    17    18    1
    33    17    39    1
    34    17    40    1
    35    18    19    1
    36    18    24    1
    37    18    20    1
    38    20    21    1
    39    20    41    1
    40    20    42    1
    41    21    22    1
    42    21    43    1
    43    21    44    1
    44    22    23    2
    45    22    24   am
    46    24    25    1
    47    25    45    1
    48    25    46    1
    49    25    47    1
    50    26    48    1
@<TRIPOS>SUBSTRUCTURE
     1 ZINC000949401225        1 TEMP              0 ****  ****    0 ROOT


##########                                Name:    ZINC001016082614
##########                DOCK_Rotatable_Bonds:                   6
##########                         Heavy_Atoms:                  25
##########                    Molecular_Weight:             348.402
##########                DOCK_Rotatable_Bonds:                   6
##########                       Formal_Charge:         -0.00999998
##########                     HBond_Acceptors:                   8
##########                        HBond_Donors:                   1
##########                         Heavy_Atoms:                  25
##########                          Grid_Score:          -26.766361
##########                     Grid_vdw_energy:          -26.027853
##########                      Grid_es_energy:           -0.738509
##########           Internal_energy_repulsive:           50.222198

@<TRIPOS>MOLECULE
ZINC001016082614
 49 51 1 0 0
SMALL
USER_CHARGES


@<TRIPOS>ATOM
      1 C1         -1.2543    0.5712   44.6069 C.3     1  ZINC001016082614   -0.1700
      2 C2         -0.5451    1.9106   44.8167 C.3     1  ZINC001016082614    0.1000
      3 N3          0.2771    1.8433   46.0274 N.am    1  ZINC001016082614   -0.6100
      4 C4          1.4782    1.2326   45.9933 C.2     1  ZINC001016082614    0.6100
      5 O5          2.1611    1.1768   46.9988 O.2     1  ZINC001016082614   -0.5100
      6 C6          1.9622    0.6352   44.7436 C.2     1  ZINC001016082614   -0.1100
      7 C7          3.0041   -0.2335   44.6071 C.2     1  ZINC001016082614    0.0600
      8 N8          3.1095   -0.5322   43.3082 N.2     1  ZINC001016082614   -0.4900
      9 C9          2.1843    0.1109   42.6477 C.2     1  ZINC001016082614    0.2000
     10 O10         1.4569    0.8350   43.5040 O.3     1  ZINC001016082614   -0.1900
     11 C11        -0.2061    2.4399   47.2752 C.3     1  ZINC001016082614    0.1600
     12 H12        -1.2110    2.8267   47.1059 H       1  ZINC001016082614    0.0800
     13 C13        -0.2800    1.3474   48.3376 C.3     1  ZINC001016082614   -0.1300
     14 C14        -1.3212    1.7183   49.3646 C.3     1  ZINC001016082614   -0.1300
     15 C15        -0.6685    2.4935   50.5235 C.3     1  ZINC001016082614    0.1000
     16 N16         0.3425    3.4581   50.0478 N.am    1  ZINC001016082614   -0.6000
     17 C17         1.5027    3.5650   50.7252 C.2     1  ZINC001016082614    0.5000
     18 O18         2.3504    4.3497   50.3559 O.2     1  ZINC001016082614   -0.5200
     19 C19         1.7465    2.7094   51.9416 C.3     1  ZINC001016082614    0.1100
     20 H20         0.8261    2.5988   52.5149 H       1  ZINC001016082614    0.1100
     21 C21         2.8526    3.3334   52.8211 C.3     1  ZINC001016082614   -0.1200
     22 C22         4.1152    2.6071   52.3023 C.3     1  ZINC001016082614   -0.1600
     23 C23         3.5880    1.3101   51.7291 C.2     1  ZINC001016082614    0.5300
     24 O24         4.2654    0.3367   51.4754 O.2     1  ZINC001016082614   -0.5300
     25 N25         2.2573    1.3927   51.5423 N.am    1  ZINC001016082614   -0.7100
     26 C26         0.1396    4.2927   48.8848 C.3     1  ZINC001016082614    0.1300
     27 C27         0.6743    3.5646   47.6267 C.3     1  ZINC001016082614   -0.1600
     28 H28        -1.8660    0.6212   43.7061 H       1  ZINC001016082614    0.0700
     29 H29        -0.5122   -0.2198   44.4986 H       1  ZINC001016082614    0.0500
     30 H30        -1.8899    0.3580   45.4663 H       1  ZINC001016082614    0.0600
     31 H31         0.0906    2.1237   43.9572 H       1  ZINC001016082614    0.0900
     32 H32        -1.2871    2.7016   44.9249 H       1  ZINC001016082614    0.0900
     33 H33         3.6299   -0.6108   45.4024 H       1  ZINC001016082614    0.2000
     34 H34         2.0287    0.0620   41.5800 H       1  ZINC001016082614    0.2600
     35 H35        -0.5524    0.4019   47.8686 H       1  ZINC001016082614    0.0700
     36 H36         0.6904    1.2465   48.8236 H       1  ZINC001016082614    0.0800
     37 H37        -2.0839    2.3412   48.8974 H       1  ZINC001016082614    0.0700
     38 H38        -1.7854    0.8115   49.7525 H       1  ZINC001016082614    0.0800
     39 H39        -1.4428    3.0326   51.0693 H       1  ZINC001016082614    0.0700
     40 H40        -0.1904    1.7840   51.1990 H       1  ZINC001016082614    0.0800
     41 H41         2.9242    4.4081   52.6537 H       1  ZINC001016082614    0.1000
     42 H42         2.6823    3.1149   53.8754 H       1  ZINC001016082614    0.1000
     43 H43         4.6027    3.1969   51.5261 H       1  ZINC001016082614    0.1100
     44 H44         4.8054    2.4090   53.1224 H       1  ZINC001016082614    0.1100
     45 H45         1.7086    0.6749   51.1894 H       1  ZINC001016082614    0.4200
     46 H46        -0.9247    4.4950   48.7645 H       1  ZINC001016082614    0.0800
     47 H47         0.6748    5.2333   49.0153 H       1  ZINC001016082614    0.0900
     48 H48         1.6791    3.1920   47.8253 H       1  ZINC001016082614    0.0900
     49 H49         0.7103    4.2651   46.7925 H       1  ZINC001016082614    0.0700
@<TRIPOS>BOND
     1     1     2    1
     2     1    28    1
     3     1    29    1
     4     1    30    1
     5     2     3    1
     6     2    31    1
     7     2    32    1
     8     3     4   am
     9     3    11    1
    10     4     5    2
    11     4     6    1
    12     6    10    1
    13     6     7    2
    14     7     8    1
    15     7    33    1
    16     8     9    2
    17     9    10    1
    18     9    34    1
    19    11    12    1
    20    11    27    1
    21    11    13    1
    22    13    14    1
    23    13    35    1
    24    13    36    1
    25    14    15    1
    26    14    37    1
    27    14    38    1
    28    15    16    1
    29    15    39    1
    30    15    40    1
    31    16    17   am
    32    16    26    1
    33    17    18    2
    34    17    19    1
    35    19    20    1
    36    19    25    1
    37    19    21    1
    38    21    22    1
    39    21    41    1
    40    21    42    1
    41    22    23    1
    42    22    43    1
    43    22    44    1
    44    23    24    2
    45    23    25   am
    46    25    45    1
    47    26    27    1
    48    26    46    1
    49    26    47    1
    50    27    48    1
    51    27    49    1
@<TRIPOS>SUBSTRUCTURE
     1 ZINC001016082614        1 TEMP              0 ****  ****    0 ROOT


##########                                Name:    ZINC000549381790
##########                DOCK_Rotatable_Bonds:                   7
##########                         Heavy_Atoms:                  23
##########                    Molecular_Weight:             337.846
##########                DOCK_Rotatable_Bonds:                   7
##########                       Formal_Charge:           0.0300006
##########                     HBond_Acceptors:                   5
##########                        HBond_Donors:                   0
##########                         Heavy_Atoms:                  23
##########                          Grid_Score:          -26.670986
##########                     Grid_vdw_energy:          -25.995428
##########                      Grid_es_energy:           -0.675559
##########           Internal_energy_repulsive:           87.010292

@<TRIPOS>MOLECULE
ZINC000549381790
 47 49 1 0 0
SMALL
USER_CHARGES


@<TRIPOS>ATOM
      1 C1         -2.4057    4.4702   53.8730 C.3     1  ZINC000549381790   -0.1400
      2 C2         -0.9427    4.8755   53.6836 C.3     1  ZINC000549381790    0.1500
      3 H3         -0.8780    5.9539   53.5389 H       1  ZINC000549381790    0.0700
      4 C4         -0.1341    4.4741   54.9213 C.3     1  ZINC000549381790   -0.1300
      5 C5          1.3492    4.7548   54.6699 C.3     1  ZINC000549381790   -0.1200
      6 C6          1.8345    3.9184   53.4838 C.3     1  ZINC000549381790   -0.1400
      7 C7          1.0483    4.3135   52.2298 C.3     1  ZINC000549381790    0.1000
      8 N8         -0.3889    4.1870   52.5097 N.am    1  ZINC000549381790   -0.6100
      9 C9         -1.1823    3.4495   51.7079 C.2     1  ZINC000549381790    0.5200
     10 O10        -2.3669    3.3529   51.9498 O.2     1  ZINC000549381790   -0.5000
     11 C11        -0.5976    2.7448   50.5110 C.3     1  ZINC000549381790    0.0400
     12 O12        -1.6455    2.1183   49.7683 O.3     1  ZINC000549381790   -0.2800
     13 C13        -1.3769    1.7935   48.4754 C.ar    1  ZINC000549381790    0.1100
     14 C14        -1.1881    2.7942   47.5341 C.ar    1  ZINC000549381790   -0.1700
     15 C15        -0.9146    2.4648   46.2203 C.ar    1  ZINC000549381790   -0.1600
     16 C16        -0.8294    1.1336   45.8425 C.ar    1  ZINC000549381790    0.1100
     17 O17        -0.5602    0.8095   44.5493 O.3     1  ZINC000549381790   -0.3000
     18 C18         0.6218    1.3686   43.9729 C.3     1  ZINC000549381790    0.0900
     19 C19         1.8535    0.7833   44.6667 C.3     1  ZINC000549381790   -0.1600
     20 C20         2.8350   -0.0161   43.8073 C.3     1  ZINC000549381790   -0.1700
     21 C21         3.2163    1.3786   44.3074 C.3     1  ZINC000549381790   -0.1700
     22 C22        -1.0184    0.1315   46.7845 C.ar    1  ZINC000549381790   -0.0300
     23 Cl23       -0.9112   -1.5356   46.3120 Cl      1  ZINC000549381790   -0.0400
     24 C24        -1.2861    0.4614   48.0995 C.ar    1  ZINC000549381790   -0.1000
     25 H25        -2.4790    3.3836   53.9171 H       1  ZINC000549381790    0.0600
     26 H26        -2.7839    4.8978   54.8016 H       1  ZINC000549381790    0.0500
     27 H27        -2.9968    4.8406   53.0354 H       1  ZINC000549381790    0.0800
     28 H28        -0.4734    5.0525   55.7807 H       1  ZINC000549381790    0.0800
     29 H29        -0.2749    3.4115   55.1189 H       1  ZINC000549381790    0.0700
     30 H30         1.4859    5.8133   54.4481 H       1  ZINC000549381790    0.0700
     31 H31         1.9239    4.4931   55.5583 H       1  ZINC000549381790    0.0700
     32 H32         2.8965    4.1012   53.3200 H       1  ZINC000549381790    0.0800
     33 H33         1.6752    2.8610   53.6949 H       1  ZINC000549381790    0.0700
     34 H34         1.2774    5.3458   51.9651 H       1  ZINC000549381790    0.0800
     35 H35         1.3196    3.6539   51.4055 H       1  ZINC000549381790    0.0800
     36 H36        -0.0860    3.4691   49.8771 H       1  ZINC000549381790    0.0900
     37 H37         0.1128    1.9890   50.8455 H       1  ZINC000549381790    0.0900
     38 H38        -1.2550    3.8313   47.8279 H       1  ZINC000549381790    0.1400
     39 H39        -0.7676    3.2444   45.4876 H       1  ZINC000549381790    0.1400
     40 H40         0.6558    1.1299   42.9100 H       1  ZINC000549381790    0.0700
     41 H41         0.6121    2.4509   44.1022 H       1  ZINC000549381790    0.0700
     42 H42         1.7025    0.4560   45.6954 H       1  ZINC000549381790    0.1200
     43 H43         3.3300   -0.8696   44.2707 H       1  ZINC000549381790    0.1000
     44 H44         2.6033   -0.1250   42.7479 H       1  ZINC000549381790    0.1000
     45 H45         3.2355    2.1874   43.5770 H       1  ZINC000549381790    0.1000
     46 H46         3.9621    1.4428   45.0998 H       1  ZINC000549381790    0.1000
     47 H47        -1.4332   -0.3179   48.8326 H       1  ZINC000549381790    0.1500
@<TRIPOS>BOND
     1     1     2    1
     2     1    25    1
     3     1    26    1
     4     1    27    1
     5     2     3    1
     6     2     8    1
     7     2     4    1
     8     4     5    1
     9     4    28    1
    10     4    29    1
    11     5     6    1
    12     5    30    1
    13     5    31    1
    14     6     7    1
    15     6    32    1
    16     6    33    1
    17     7     8    1
    18     7    34    1
    19     7    35    1
    20     8     9   am
    21     9    10    2
    22     9    11    1
    23    11    12    1
    24    11    36    1
    25    11    37    1
    26    12    13    1
    27    13    24   ar
    28    13    14   ar
    29    14    15   ar
    30    14    38    1
    31    15    16   ar
    32    15    39    1
    33    16    17    1
    34    16    22   ar
    35    17    18    1
    36    18    19    1
    37    18    40    1
    38    18    41    1
    39    19    21    1
    40    19    20    1
    41    19    42    1
    42    20    21    1
    43    20    43    1
    44    20    44    1
    45    21    45    1
    46    21    46    1
    47    22    23    1
    48    22    24   ar
    49    24    47    1
@<TRIPOS>SUBSTRUCTURE
     1 ZINC000549381790        1 TEMP              0 ****  ****    0 ROOT


##########                                Name:    ZINC000811540126
##########                DOCK_Rotatable_Bonds:                   7
##########                         Heavy_Atoms:                  21
##########                    Molecular_Weight:             397.212
##########                DOCK_Rotatable_Bonds:                   7
##########                       Formal_Charge:           0.0100001
##########                     HBond_Acceptors:                   4
##########                        HBond_Donors:                   3
##########                         Heavy_Atoms:                  21
##########                          Grid_Score:          -26.636637
##########                     Grid_vdw_energy:          -25.125803
##########                      Grid_es_energy:           -1.510833
##########           Internal_energy_repulsive:           14.503333

@<TRIPOS>MOLECULE
ZINC000811540126
 37 38 1 0 0
SMALL
USER_CHARGES


@<TRIPOS>ATOM
      1 C1        -16.6172   -1.9040   58.7557 C.3     1  ZINC000811540126   -0.1600
      2 C2        -16.1434   -3.1814   59.4522 C.3     1  ZINC000811540126    0.1200
      3 H3        -16.2225   -4.0219   58.7627 H       1  ZINC000811540126    0.1000
      4 N4        -14.7482   -3.0214   59.8694 N.am    1  ZINC000811540126   -0.7200
      5 C5        -13.7651   -3.0207   58.9474 C.2     1  ZINC000811540126    0.5700
      6 O6        -14.0361   -3.1543   57.7697 O.2     1  ZINC000811540126   -0.5100
      7 C7        -12.3602   -2.8579   59.3673 C.ar    1  ZINC000811540126   -0.1600
      8 C8        -12.0012   -1.8214   60.2320 C.ar    1  ZINC000811540126   -0.0400
      9 C9        -10.6865   -1.6747   60.6206 C.ar    1  ZINC000811540126   -0.1200
     10 I10       -10.1496   -0.1195   61.9176 I       1  ZINC000811540126   -0.0300
     11 C11        -9.7189   -2.5515   60.1574 C.ar    1  ZINC000811540126   -0.0400
     12 C12       -10.0606   -3.5802   59.3017 C.ar    1  ZINC000811540126   -0.1500
     13 C13       -11.3789   -3.7459   58.9053 C.ar    1  ZINC000811540126    0.1900
     14 O14       -11.7159   -4.7564   58.0652 O.3     1  ZINC000811540126   -0.4700
     15 C15       -17.0159   -3.4457   60.6809 C.3     1  ZINC000811540126    0.1400
     16 H16       -16.7110   -4.3819   61.1485 H       1  ZINC000811540126    0.1300
     17 O17       -18.3853   -3.5362   60.2824 O.3     1  ZINC000811540126   -0.5400
     18 C18       -16.8529   -2.3162   61.6653 C.ar    1  ZINC000811540126   -0.1200
     19 C19       -17.7437   -1.2593   61.6581 C.ar    1  ZINC000811540126   -0.1100
     20 C20       -17.5942   -0.2232   62.5610 C.ar    1  ZINC000811540126   -0.1100
     21 C21       -16.5540   -0.2444   63.4712 C.ar    1  ZINC000811540126   -0.1200
     22 C22       -15.6636   -1.3018   63.4788 C.ar    1  ZINC000811540126   -0.1100
     23 C23       -15.8158   -2.3400   62.5788 C.ar    1  ZINC000811540126   -0.1100
     24 H24       -15.9955   -1.7156   57.8804 H       1  ZINC000811540126    0.0600
     25 H25       -17.6552   -2.0230   58.4455 H       1  ZINC000811540126    0.0700
     26 H26       -16.5381   -1.0635   59.4452 H       1  ZINC000811540126    0.0700
     27 H27       -14.5320   -2.9159   60.8091 H       1  ZINC000811540126    0.3900
     28 H28       -12.7523   -1.1357   60.5954 H       1  ZINC000811540126    0.1300
     29 H29        -8.6914   -2.4297   60.4669 H       1  ZINC000811540126    0.1400
     30 H30        -9.3006   -4.2595   58.9446 H       1  ZINC000811540126    0.1500
     31 H31       -10.9705   -5.3119   57.7992 H       1  ZINC000811540126    0.4000
     32 H32       -18.5861   -4.3096   59.7379 H       1  ZINC000811540126    0.3700
     33 H33       -18.5564   -1.2428   60.9470 H       1  ZINC000811540126    0.1100
     34 H34       -18.2898    0.6029   62.5550 H       1  ZINC000811540126    0.1200
     35 H35       -16.4367    0.5654   64.1761 H       1  ZINC000811540126    0.1200
     36 H36       -14.8508   -1.3181   64.1898 H       1  ZINC000811540126    0.1300
     37 H37       -15.1202   -3.1661   62.5848 H       1  ZINC000811540126    0.1200
@<TRIPOS>BOND
     1     1     2    1
     2     1    24    1
     3     1    25    1
     4     1    26    1
     5     2     3    1
     6     2     4    1
     7     2    15    1
     8     4     5   am
     9     4    27    1
    10     5     6    2
    11     5     7    1
    12     7    13   ar
    13     7     8   ar
    14     8     9   ar
    15     8    28    1
    16     9    10    1
    17     9    11   ar
    18    11    12   ar
    19    11    29    1
    20    12    13   ar
    21    12    30    1
    22    13    14    1
    23    14    31    1
    24    15    16    1
    25    15    17    1
    26    15    18    1
    27    17    32    1
    28    18    23   ar
    29    18    19   ar
    30    19    20   ar
    31    19    33    1
    32    20    21   ar
    33    20    34    1
    34    21    22   ar
    35    21    35    1
    36    22    23   ar
    37    22    36    1
    38    23    37    1
@<TRIPOS>SUBSTRUCTURE
     1 ZINC000811540126        1 TEMP              0 ****  ****    0 ROOT


##########                                Name:    ZINC000350493047
##########                DOCK_Rotatable_Bonds:                   7
##########                         Heavy_Atoms:                  24
##########                    Molecular_Weight:             330.387
##########                DOCK_Rotatable_Bonds:                   7
##########                       Formal_Charge:          -0.0300002
##########                     HBond_Acceptors:                   7
##########                        HBond_Donors:                   3
##########                         Heavy_Atoms:                  24
##########                          Grid_Score:          -26.633499
##########                     Grid_vdw_energy:          -24.063370
##########                      Grid_es_energy:           -2.570130
##########           Internal_energy_repulsive:            9.754598

@<TRIPOS>MOLECULE
ZINC000350493047
 46 48 1 0 0
SMALL
USER_CHARGES


@<TRIPOS>ATOM
      1 C1         -8.0562    1.8555   67.3833 C.3     1  <0>        -0.1600
      2 C2         -7.5508    1.0527   66.1829 C.3     1  <0>         0.2600
      3 H3         -7.0399    0.1563   66.5345 H       1  <0>         0.1200
      4 N4         -6.6188    1.8725   65.4046 N.am    1  <0>        -0.7400
      5 C5         -5.4060    2.1759   65.9081 C.2     1  <0>         0.7100
      6 N6         -4.5479    2.9288   65.1914 N.am    1  <0>        -0.8600
      7 O7         -5.0859    1.7707   67.0089 O.2     1  <0>        -0.5900
      8 C8         -8.7179    0.6580   65.3150 C.2     1  <0>         0.1700
      9 N9         -9.9342    1.1072   65.4135 N.2     1  <0>        -0.3800
     10 O10       -10.6442    0.5988   64.5718 O.3     1  <0>         0.0900
     11 C11        -9.9236   -0.2549   63.8279 C.2     1  <0>         0.2400
     12 C12       -10.4138   -1.0736   62.7010 C.ar    1  <0>        -0.0800
     13 C13        -9.5062   -1.7034   61.8461 C.ar    1  <0>        -0.0200
     14 C14        -9.9675   -2.4664   60.7959 C.ar    1  <0>        -0.2200
     15 C15       -11.3336   -2.6095   60.5863 C.ar    1  <0>         0.1700
     16 O16       -11.7842   -3.3620   59.5498 O.3     1  <0>        -0.3000
     17 C17       -11.6806   -2.7942   58.2426 C.3     1  <0>         0.0800
     18 C18       -12.5163   -3.6182   57.2611 C.3     1  <0>        -0.1500
     19 C19       -12.4054   -3.0103   55.8614 C.3     1  <0>        -0.1200
     20 C20       -12.9226   -1.5706   55.8881 C.3     1  <0>        -0.1300
     21 C21       -12.0868   -0.7466   56.8698 C.3     1  <0>        -0.1200
     22 C22       -12.1978   -1.3545   58.2694 C.3     1  <0>        -0.1200
     23 C23       -12.2396   -1.9851   61.4346 C.ar    1  <0>        -0.1600
     24 C24       -11.7864   -1.2252   62.4905 C.ar    1  <0>        -0.0300
     25 N25        -8.6884   -0.2163   64.2973 N.2     1  <0>        -0.4700
     26 H26        -8.5671    2.7519   67.0317 H       1  <0>         0.0600
     27 H27        -8.7496    1.2456   67.9622 H       1  <0>         0.0700
     28 H28        -7.2121    2.1410   68.0108 H       1  <0>         0.0800
     29 H29        -6.8745    2.1967   64.5269 H       1  <0>         0.4000
     30 H30        -3.6747    3.1462   65.5534 H       1  <0>         0.4000
     31 H31        -4.8037    3.2531   64.3138 H       1  <0>         0.4200
     32 H32        -8.4442   -1.5920   62.0080 H       1  <0>         0.1400
     33 H33        -9.2665   -2.9536   60.1345 H       1  <0>         0.1400
     34 H34       -10.6377   -2.7998   57.9257 H       1  <0>         0.0800
     35 H35       -12.1479   -4.6439   57.2420 H       1  <0>         0.0700
     36 H36       -13.5593   -3.6126   57.5780 H       1  <0>         0.0800
     37 H37       -11.3625   -3.0159   55.5445 H       1  <0>         0.0600
     38 H38       -13.0008   -3.5973   55.1620 H       1  <0>         0.0700
     39 H39       -12.8436   -1.1375   54.8910 H       1  <0>         0.0700
     40 H40       -13.9655   -1.5649   56.2051 H       1  <0>         0.0700
     41 H41       -11.0439   -0.7523   56.5528 H       1  <0>         0.0700
     42 H42       -12.4553    0.2790   56.8888 H       1  <0>         0.0700
     43 H43       -13.2407   -1.3489   58.5863 H       1  <0>         0.0800
     44 H44       -11.6024   -0.7675   58.9687 H       1  <0>         0.0700
     45 H45       -13.3007   -2.0991   61.2685 H       1  <0>         0.1400
     46 H46       -12.4913   -0.7404   63.1497 H       1  <0>         0.1400
@<TRIPOS>BOND
     1     1     2    1
     2     1    26    1
     3     1    27    1
     4     1    28    1
     5     2     3    1
     6     2     4    1
     7     2     8    1
     8     4     5   am
     9     4    29    1
    10     5     6   am
    11     5     7    2
    12     6    30    1
    13     6    31    1
    14     8    25    1
    15     8     9    2
    16     9    10    1
    17    10    11    1
    18    11    12    1
    19    11    25    2
    20    12    24   ar
    21    12    13   ar
    22    13    14   ar
    23    13    32    1
    24    14    15   ar
    25    14    33    1
    26    15    16    1
    27    15    23   ar
    28    16    17    1
    29    17    22    1
    30    17    18    1
    31    17    34    1
    32    18    19    1
    33    18    35    1
    34    18    36    1
    35    19    20    1
    36    19    37    1
    37    19    38    1
    38    20    21    1
    39    20    39    1
    40    20    40    1
    41    21    22    1
    42    21    41    1
    43    21    42    1
    44    22    43    1
    45    22    44    1
    46    23    24   ar
    47    23    45    1
    48    24    46    1
@<TRIPOS>SUBSTRUCTURE
     1 <0>         1 TEMP              0 ****  ****    0 ROOT


##########                                Name:    ZINC001077846158
##########                DOCK_Rotatable_Bonds:                   7
##########                         Heavy_Atoms:                  24
##########                    Molecular_Weight:             350.442
##########                DOCK_Rotatable_Bonds:                   7
##########                       Formal_Charge:          -0.0600002
##########                     HBond_Acceptors:                   8
##########                        HBond_Donors:                   2
##########                         Heavy_Atoms:                  24
##########                          Grid_Score:          -26.602732
##########                     Grid_vdw_energy:          -24.797213
##########                      Grid_es_energy:           -1.805519
##########           Internal_energy_repulsive:           16.508127

@<TRIPOS>MOLECULE
ZINC001077846158
 46 48 1 0 0
SMALL
USER_CHARGES


@<TRIPOS>ATOM
      1 C1        -15.4611   -2.8476   57.7095 C.3     1  ZINC001077846158   -0.0700
      2 C2        -14.7568   -4.1397   57.3846 C.2     1  ZINC001077846158    0.0100
      3 C3        -13.4692   -4.2720   57.0253 C.2     1  ZINC001077846158   -0.0500
      4 C4        -12.4634   -3.1601   56.8730 C.3     1  ZINC001077846158    0.1300
      5 N5        -11.8263   -2.8952   58.1698 N.3     1  ZINC001077846158   -0.5100
      6 C6        -10.7183   -3.8512   58.4237 C.3     1  ZINC001077846158    0.0000
      7 C7         -9.8662   -3.1292   59.4977 C.3     1  ZINC001077846158    0.1000
      8 H8        -10.3001   -3.2633   60.4886 H       1  ZINC001077846158    0.0800
      9 O9         -8.5165   -3.5975   59.4711 O.3     1  ZINC001077846158   -0.5600
     10 C10        -9.9441   -1.6479   59.0623 C.3     1  ZINC001077846158    0.1400
     11 H11        -9.0639   -1.3782   58.4789 H       1  ZINC001077846158    0.1100
     12 N12       -10.0613   -0.7785   60.2357 N.am    1  ZINC001077846158   -0.7000
     13 C13       -11.0906   -0.9365   61.0913 C.2     1  ZINC001077846158    0.6000
     14 O14       -11.9228   -1.8000   60.8887 O.2     1  ZINC001077846158   -0.5300
     15 C15       -11.2074   -0.0638   62.2717 C.2     1  ZINC001077846158    0.0100
     16 C16       -10.2133    0.7517   62.6895 C.2     1  ZINC001077846158   -0.2300
     17 S17       -10.7381    1.5930   64.0819 S.3     1  ZINC001077846158    0.2300
     18 C18       -12.2537    0.8080   64.0261 C.2     1  ZINC001077846158    0.0300
     19 C19       -13.3745    1.0351   65.0077 C.3     1  ZINC001077846158   -0.0200
     20 C20       -12.7895    1.3655   66.3823 C.3     1  ZINC001077846158   -0.1500
     21 C21       -14.2431    2.2002   64.5295 C.3     1  ZINC001077846158   -0.1500
     22 N22       -12.3076    0.0001   63.0265 N.2     1  ZINC001077846158   -0.4500
     23 C23       -11.2117   -1.5501   58.1935 C.3     1  ZINC001077846158    0.0300
     24 O24       -13.2460   -5.5860   56.8270 O.3     1  ZINC001077846158   -0.2100
     25 C25       -14.3927   -6.2359   57.0663 C.2     1  ZINC001077846158    0.1800
     26 N26       -15.3025   -5.3685   57.4078 N.2     1  ZINC001077846158   -0.4900
     27 H27       -15.3617   -2.6374   58.7745 H       1  ZINC001077846158    0.0800
     28 H28       -15.0140   -2.0358   57.1358 H       1  ZINC001077846158    0.0700
     29 H29       -16.5170   -2.9349   57.4534 H       1  ZINC001077846158    0.0700
     30 H30       -11.7040   -3.4539   56.1483 H       1  ZINC001077846158    0.0600
     31 H31       -12.9682   -2.2588   56.5252 H       1  ZINC001077846158    0.1100
     32 H32       -11.1049   -4.7944   58.8095 H       1  ZINC001077846158    0.0900
     33 H33       -10.1361   -4.0149   57.5169 H       1  ZINC001077846158    0.0600
     34 H34        -7.9430   -3.1104   58.8637 H       1  ZINC001077846158    0.3900
     35 H35        -9.3982   -0.0891   60.3968 H       1  ZINC001077846158    0.4100
     36 H36        -9.2459    0.8548   62.2203 H       1  ZINC001077846158    0.1900
     37 H37       -13.9831    0.1335   65.0791 H       1  ZINC001077846158    0.1000
     38 H38       -12.1707    0.5353   66.7230 H       1  ZINC001077846158    0.0600
     39 H39       -12.1808    2.2670   66.3110 H       1  ZINC001077846158    0.0600
     40 H40       -13.6001    1.5297   67.0922 H       1  ZINC001077846158    0.0700
     41 H41       -14.6598    1.9648   63.5503 H       1  ZINC001077846158    0.0600
     42 H42       -15.0537    2.3645   65.2395 H       1  ZINC001077846158    0.0700
     43 H43       -13.6344    3.1017   64.4582 H       1  ZINC001077846158    0.0600
     44 H44       -10.9456   -1.2457   57.1813 H       1  ZINC001077846158    0.0600
     45 H45       -11.9063   -0.8321   58.6295 H       1  ZINC001077846158    0.0900
     46 H46       -14.5379   -7.3036   56.9925 H       1  ZINC001077846158    0.2500
@<TRIPOS>BOND
     1     1     2    1
     2     1    27    1
     3     1    28    1
     4     1    29    1
     5     2    26    1
     6     2     3    2
     7     3     4    1
     8     3    24    1
     9     4     5    1
    10     4    30    1
    11     4    31    1
    12     5    23    1
    13     5     6    1
    14     6     7    1
    15     6    32    1
    16     6    33    1
    17     7     8    1
    18     7     9    1
    19     7    10    1
    20     9    34    1
    21    10    11    1
    22    10    12    1
    23    10    23    1
    24    12    13   am
    25    12    35    1
    26    13    14    2
    27    13    15    1
    28    15    22    1
    29    15    16    2
    30    16    17    1
    31    16    36    1
    32    17    18    1
    33    18    19    1
    34    18    22    2
    35    19    20    1
    36    19    21    1
    37    19    37    1
    38    20    38    1
    39    20    39    1
    40    20    40    1
    41    21    41    1
    42    21    42    1
    43    21    43    1
    44    23    44    1
    45    23    45    1
    46    24    25    1
    47    25    26    2
    48    25    46    1
@<TRIPOS>SUBSTRUCTURE
     1 ZINC001077846158        1 TEMP              0 ****  ****    0 ROOT


##########                                Name:    ZINC000074782190
##########                DOCK_Rotatable_Bonds:                   9
##########                         Heavy_Atoms:                  25
##########                    Molecular_Weight:             341.453
##########                DOCK_Rotatable_Bonds:                   9
##########                       Formal_Charge:          -0.0200006
##########                     HBond_Acceptors:                   5
##########                        HBond_Donors:                   1
##########                         Heavy_Atoms:                  25
##########                          Grid_Score:          -26.596542
##########                     Grid_vdw_energy:          -26.707663
##########                      Grid_es_energy:            0.111119
##########           Internal_energy_repulsive:           21.619652

@<TRIPOS>MOLECULE
ZINC000074782190
 52 53 1 0 0
SMALL
USER_CHARGES


@<TRIPOS>ATOM
      1 C1         -8.3498    2.7585   54.9562 C.3     1  ZINC000074782190   -0.1100
      2 C2         -8.0276    1.8319   53.8123 C.ar    1  ZINC000074782190   -0.1200
      3 C3         -6.7130    1.6122   53.4499 C.ar    1  ZINC000074782190   -0.0800
      4 C4         -6.4167    0.7624   52.4000 C.ar    1  ZINC000074782190   -0.1500
      5 C5         -7.4349    0.1304   51.7109 C.ar    1  ZINC000074782190   -0.0900
      6 C6         -8.7515    0.3464   52.0697 C.ar    1  ZINC000074782190   -0.2100
      7 C7         -9.0511    1.1942   53.1259 C.ar    1  ZINC000074782190    0.1300
      8 O8        -10.3454    1.4084   53.4808 O.3     1  ZINC000074782190   -0.3000
      9 C9        -11.0936    0.2735   53.9212 C.3     1  ZINC000074782190    0.0700
     10 H10       -10.5069   -0.6317   53.7643 H       1  ZINC000074782190    0.0800
     11 C11       -12.3965    0.1812   53.1245 C.3     1  ZINC000074782190   -0.1800
     12 C12       -11.4153    0.4210   55.4096 C.3     1  ZINC000074782190    0.1400
     13 N13       -11.3481   -0.8918   56.0563 N.am    1  ZINC000074782190   -0.7500
     14 C14       -10.9258   -0.9938   57.3322 C.2     1  ZINC000074782190    0.7100
     15 O15       -10.6005    0.0038   57.9464 O.2     1  ZINC000074782190   -0.5900
     16 N16       -10.8640   -2.2015   57.9270 N.am    1  ZINC000074782190   -0.6200
     17 C17       -11.2559   -3.4036   57.1869 C.3     1  ZINC000074782190    0.1800
     18 C18       -12.7174   -3.6848   57.4232 C.ar    1  ZINC000074782190   -0.1600
     19 C19       -13.5963   -2.6484   57.6974 C.ar    1  ZINC000074782190   -0.0500
     20 C20       -14.9325   -2.9543   57.9075 C.ar    1  ZINC000074782190   -0.1800
     21 C21       -15.3407   -4.2726   57.8369 C.ar    1  ZINC000074782190    0.1000
     22 N22       -14.4762   -5.2332   57.5736 N.ar    1  ZINC000074782190   -0.4900
     23 C23       -13.1997   -4.9789   57.3633 C.ar    1  ZINC000074782190    0.1100
     24 C24       -10.4049   -2.3124   59.3139 C.3     1  ZINC000074782190    0.1300
     25 C25       -11.3218   -3.2682   60.0798 C.3     1  ZINC000074782190   -0.1800
     26 C26        -8.9734   -2.8519   59.3357 C.3     1  ZINC000074782190   -0.1800
     27 H27        -8.3746    2.1919   55.8870 H       1  ZINC000074782190    0.0700
     28 H28        -7.5857    3.5332   55.0226 H       1  ZINC000074782190    0.0600
     29 H29        -9.3221    3.2210   54.7865 H       1  ZINC000074782190    0.0700
     30 H30        -5.9159    2.1048   53.9869 H       1  ZINC000074782190    0.1300
     31 H31        -5.3882    0.5925   52.1178 H       1  ZINC000074782190    0.1200
     32 H32        -7.2009   -0.5327   50.8910 H       1  ZINC000074782190    0.1200
     33 H33        -9.5466   -0.1474   51.5308 H       1  ZINC000074782190    0.1300
     34 H34       -12.9832    1.0863   53.2813 H       1  ZINC000074782190    0.0700
     35 H35       -12.1673    0.0760   52.0640 H       1  ZINC000074782190    0.0700
     36 H36       -12.9673   -0.6846   53.4604 H       1  ZINC000074782190    0.0800
     37 H37       -10.6918    1.0917   55.8730 H       1  ZINC000074782190    0.0800
     38 H38       -12.4181    0.8323   55.5256 H       1  ZINC000074782190    0.0900
     39 H39       -11.6077   -1.6877   55.5662 H       1  ZINC000074782190    0.4100
     40 H40       -11.0835   -3.2470   56.1221 H       1  ZINC000074782190    0.0900
     41 H41       -10.6627   -4.2512   57.5302 H       1  ZINC000074782190    0.1000
     42 H42       -13.2486   -1.6271   57.7467 H       1  ZINC000074782190    0.1400
     43 H43       -15.6450   -2.1720   58.1239 H       1  ZINC000074782190    0.1300
     44 H44       -16.3795   -4.5191   57.9997 H       1  ZINC000074782190    0.1600
     45 H45       -12.5215   -5.7919   57.1503 H       1  ZINC000074782190    0.1500
     46 H46       -10.4300   -1.3295   59.7845 H       1  ZINC000074782190    0.1000
     47 H47       -11.2280   -4.2719   59.6653 H       1  ZINC000074782190    0.0600
     48 H48       -11.0361   -3.2812   61.1316 H       1  ZINC000074782190    0.0700
     49 H49       -12.3548   -2.9323   59.9881 H       1  ZINC000074782190    0.0600
     50 H50        -8.3015   -2.1173   58.8916 H       1  ZINC000074782190    0.0700
     51 H51        -8.6729   -3.0433   60.3658 H       1  ZINC000074782190    0.0700
     52 H52        -8.9260   -3.7794   58.7650 H       1  ZINC000074782190    0.0700
@<TRIPOS>BOND
     1     1     2    1
     2     1    27    1
     3     1    28    1
     4     1    29    1
     5     2     7   ar
     6     2     3   ar
     7     3     4   ar
     8     3    30    1
     9     4     5   ar
    10     4    31    1
    11     5     6   ar
    12     5    32    1
    13     6     7   ar
    14     6    33    1
    15     7     8    1
    16     8     9    1
    17     9    10    1
    18     9    11    1
    19     9    12    1
    20    11    34    1
    21    11    35    1
    22    11    36    1
    23    12    13    1
    24    12    37    1
    25    12    38    1
    26    13    14   am
    27    13    39    1
    28    14    15    2
    29    14    16   am
    30    16    17    1
    31    16    24    1
    32    17    18    1
    33    17    40    1
    34    17    41    1
    35    18    23   ar
    36    18    19   ar
    37    19    20   ar
    38    19    42    1
    39    20    21   ar
    40    20    43    1
    41    21    22   ar
    42    21    44    1
    43    22    23   ar
    44    23    45    1
    45    24    25    1
    46    24    26    1
    47    24    46    1
    48    25    47    1
    49    25    48    1
    50    25    49    1
    51    26    50    1
    52    26    51    1
    53    26    52    1
@<TRIPOS>SUBSTRUCTURE
     1 ZINC000074782190        1 TEMP              0 ****  ****    0 ROOT


##########                                Name:    ZINC000581017854
##########                DOCK_Rotatable_Bonds:                   6
##########                         Heavy_Atoms:                  24
##########                    Molecular_Weight:             330.334
##########                DOCK_Rotatable_Bonds:                   6
##########                       Formal_Charge:           0.0099998
##########                     HBond_Acceptors:                   6
##########                        HBond_Donors:                   2
##########                         Heavy_Atoms:                  24
##########                          Grid_Score:          -26.574421
##########                     Grid_vdw_energy:          -26.148241
##########                      Grid_es_energy:           -0.426180
##########           Internal_energy_repulsive:            9.603408

@<TRIPOS>MOLECULE
ZINC000581017854
 40 42 1 0 0
SMALL
USER_CHARGES


@<TRIPOS>ATOM
      1 C1         -9.2103   -2.1156   59.9473 C.3     1  ZINC000581017854   -0.1600
      2 C2        -10.5983   -2.3986   60.5257 C.3     1  ZINC000581017854    0.1500
      3 H3        -10.6175   -3.4027   60.9494 H       1  ZINC000581017854    0.1100
      4 C4        -10.9127   -1.3770   61.6203 C.3     1  ZINC000581017854    0.0500
      5 O5         -9.9474   -1.4893   62.6681 O.3     1  ZINC000581017854   -0.3100
      6 C6        -10.0284   -0.5868   63.6810 C.ar    1  ZINC000581017854    0.1600
      7 C7        -11.0399    0.3626   63.6859 C.ar    1  ZINC000581017854   -0.2200
      8 C8        -11.1214    1.2797   64.7163 C.ar    1  ZINC000581017854   -0.0500
      9 C9        -10.1958    1.2528   65.7423 C.ar    1  ZINC000581017854   -0.1900
     10 C10        -9.1843    0.3066   65.7404 C.ar    1  ZINC000581017854    0.1400
     11 F11        -8.2804    0.2820   66.7443 F       1  ZINC000581017854   -0.1300
     12 C12        -9.1033   -0.6175   64.7141 C.ar    1  ZINC000581017854   -0.1900
     13 N13       -11.6003   -2.2982   59.4617 N.am    1  ZINC000581017854   -0.7300
     14 C14       -11.8976   -3.3780   58.7120 C.2     1  ZINC000581017854    0.5900
     15 O15       -11.3328   -4.4358   58.9179 O.2     1  ZINC000581017854   -0.5400
     16 C16       -12.9037   -3.2779   57.6462 C.2     1  ZINC000581017854   -0.2200
     17 C17       -13.3930   -2.1328   57.0908 C.2     1  ZINC000581017854    0.1100
     18 N18       -14.3055   -2.4395   56.1369 N.pl3   1  ZINC000581017854   -0.5700
     19 C19       -14.4497   -3.8075   56.0306 C.ar    1  ZINC000581017854    0.1100
     20 C20       -15.2387   -4.6212   55.2247 C.ar    1  ZINC000581017854   -0.1600
     21 C21       -15.1643   -5.9936   55.3500 C.ar    1  ZINC000581017854    0.1200
     22 F22       -15.9323   -6.7803   54.5648 F       1  ZINC000581017854   -0.1400
     23 C23       -14.3062   -6.5731   56.2761 C.ar    1  ZINC000581017854   -0.1700
     24 C24       -13.5176   -5.7820   57.0824 C.ar    1  ZINC000581017854   -0.0300
     25 C25       -13.5789   -4.3962   56.9617 C.ar    1  ZINC000581017854   -0.0700
     26 H26        -8.4647   -2.1902   60.7390 H       1  ZINC000581017854    0.0700
     27 H27        -8.9863   -2.8433   59.1675 H       1  ZINC000581017854    0.0700
     28 H28        -9.1910   -1.1115   59.5236 H       1  ZINC000581017854    0.0700
     29 H29       -10.8775   -0.3718   61.2002 H       1  ZINC000581017854    0.0700
     30 H30       -11.9080   -1.5687   62.0212 H       1  ZINC000581017854    0.0800
     31 H31       -11.7634    0.3851   62.8845 H       1  ZINC000581017854    0.1400
     32 H32       -11.9090    2.0186   64.7196 H       1  ZINC000581017854    0.1400
     33 H33       -10.2612    1.9708   66.5465 H       1  ZINC000581017854    0.1400
     34 H34        -8.3150   -1.3557   64.7122 H       1  ZINC000581017854    0.1400
     35 H35       -12.0497   -1.4547   59.2967 H       1  ZINC000581017854    0.4000
     36 H36       -13.0977   -1.1320   57.3691 H       1  ZINC000581017854    0.1800
     37 H37       -14.7895   -1.7889   55.6044 H       1  ZINC000581017854    0.4200
     38 H38       -15.9090   -4.1798   54.5021 H       1  ZINC000581017854    0.1400
     39 H39       -14.2576   -7.6484   56.3646 H       1  ZINC000581017854    0.1400
     40 H40       -12.8515   -6.2348   57.8019 H       1  ZINC000581017854    0.1500
@<TRIPOS>BOND
     1     1     2    1
     2     1    26    1
     3     1    27    1
     4     1    28    1
     5     2     3    1
     6     2     4    1
     7     2    13    1
     8     4     5    1
     9     4    29    1
    10     4    30    1
    11     5     6    1
    12     6    12   ar
    13     6     7   ar
    14     7     8   ar
    15     7    31    1
    16     8     9   ar
    17     8    32    1
    18     9    10   ar
    19     9    33    1
    20    10    11    1
    21    10    12   ar
    22    12    34    1
    23    13    14   am
    24    13    35    1
    25    14    15    2
    26    14    16    1
    27    16    25    1
    28    16    17    2
    29    17    18    1
    30    17    36    1
    31    18    19    1
    32    18    37    1
    33    19    25   ar
    34    19    20   ar
    35    20    21   ar
    36    20    38    1
    37    21    22    1
    38    21    23   ar
    39    23    24   ar
    40    23    39    1
    41    24    25   ar
    42    24    40    1
@<TRIPOS>SUBSTRUCTURE
     1 ZINC000581017854        1 TEMP              0 ****  ****    0 ROOT


##########                                Name:    ZINC000507831344
##########                DOCK_Rotatable_Bonds:                   6
##########                         Heavy_Atoms:                  31
##########                    Molecular_Weight:              422.53
##########                DOCK_Rotatable_Bonds:                   6
##########                       Formal_Charge:          -0.0200002
##########                     HBond_Acceptors:                   8
##########                        HBond_Donors:                   2
##########                         Heavy_Atoms:                  31
##########                          Grid_Score:          -26.542685
##########                     Grid_vdw_energy:          -26.662008
##########                      Grid_es_energy:            0.119323
##########           Internal_energy_repulsive:           22.852428

@<TRIPOS>MOLECULE
ZINC000507831344
 61 64 1 0 0
SMALL
USER_CHARGES


@<TRIPOS>ATOM
      1 C1        -12.6890    4.1360   51.3236 C.3     1  ZINC000507831344   -0.1000
      2 C2        -12.9280    2.7647   51.9012 C.ar    1  ZINC000507831344   -0.0800
      3 C3        -12.7192    2.5260   53.2469 C.ar    1  ZINC000507831344   -0.0800
      4 C4        -12.9534    1.2424   53.7378 C.ar    1  ZINC000507831344    0.0900
      5 N5        -12.7554    0.9550   55.0955 N.am    1  ZINC000507831344   -0.6700
      6 C6        -11.8991   -0.0197   55.4601 C.2     1  ZINC000507831344    0.5100
      7 O7        -11.2996   -0.6483   54.6135 O.2     1  ZINC000507831344   -0.5100
      8 C8        -11.6862   -0.3287   56.9197 C.3     1  ZINC000507831344   -0.1400
      9 C9        -10.3338    0.2294   57.3672 C.3     1  ZINC000507831344   -0.0500
     10 C10       -10.2904    0.2944   58.8722 C.2     1  ZINC000507831344   -0.2200
     11 C11        -9.7759   -0.7396   59.5888 C.2     1  ZINC000507831344    0.2100
     12 C12        -9.2430   -1.9626   58.8878 C.3     1  ZINC000507831344   -0.1400
     13 N13        -9.7474   -0.6570   60.9457 N.pl3   1  ZINC000507831344   -0.3000
     14 N14        -9.2900   -1.5402   61.9311 N.am    1  ZINC000507831344   -0.5100
     15 C15        -9.4925   -0.9759   63.1370 C.2     1  ZINC000507831344    0.5500
     16 O16        -9.2094   -1.4731   64.2150 O.2     1  ZINC000507831344   -0.5400
     17 C17       -10.0806    0.2732   62.9441 C.2     1  ZINC000507831344   -0.3500
     18 C18       -10.2351    0.4620   61.5725 C.2     1  ZINC000507831344    0.3500
     19 N19       -10.7394    1.4751   60.8584 N.2     1  ZINC000507831344   -0.4800
     20 C20       -10.7741    1.4223   59.5443 C.2     1  ZINC000507831344    0.2500
     21 C21       -11.3462    2.5757   58.7610 C.3     1  ZINC000507831344   -0.1200
     22 C22       -13.3850    0.2538   52.8670 C.ar    1  ZINC000507831344    0.0800
     23 N23       -13.5740    0.5167   51.5878 N.ar    1  ZINC000507831344   -0.4900
     24 C24       -13.3668    1.7247   51.0882 C.ar    1  ZINC000507831344    0.2800
     25 N25       -13.5803    1.9545   49.7318 N.3     1  ZINC000507831344   -0.4800
     26 C26       -12.7339    1.0797   48.9103 C.3     1  ZINC000507831344    0.0600
     27 C27       -12.8865    1.4586   47.4355 C.3     1  ZINC000507831344   -0.1200
     28 C28       -14.3544    1.3118   47.0251 C.3     1  ZINC000507831344   -0.1200
     29 C29       -15.2194    2.1960   47.9275 C.3     1  ZINC000507831344   -0.1100
     30 C30       -14.9991    1.7958   49.3881 C.3     1  ZINC000507831344    0.0900
     31 H31       -15.2925    0.7554   49.5277 H       1  ZINC000507831344    0.0600
     32 C32       -15.8463    2.6905   50.2951 C.3     1  ZINC000507831344   -0.1400
     33 H33       -13.6274    4.6902   51.3033 H       1  ZINC000507831344    0.0700
     34 H34       -11.9655    4.6691   51.9404 H       1  ZINC000507831344    0.0600
     35 H35       -12.3014    4.0405   50.3093 H       1  ZINC000507831344    0.0800
     36 H36       -12.3823    3.3154   53.9024 H       1  ZINC000507831344    0.1500
     37 H37       -13.2350    1.4575   55.7726 H       1  ZINC000507831344    0.4100
     38 H38       -12.4811    0.1300   57.5078 H       1  ZINC000507831344    0.1000
     39 H39       -11.7009   -1.4084   57.0684 H       1  ZINC000507831344    0.1000
     40 H40        -9.5357   -0.4207   57.0086 H       1  ZINC000507831344    0.0900
     41 H41       -10.1997    1.2300   56.9563 H       1  ZINC000507831344    0.1000
     42 H42        -8.1832   -1.8255   58.6733 H       1  ZINC000507831344    0.1000
     43 H43        -9.3743   -2.8347   59.5285 H       1  ZINC000507831344    0.0800
     44 H44        -9.7862   -2.1122   57.9547 H       1  ZINC000507831344    0.1100
     45 H45        -8.8945   -2.4116   61.7721 H       1  ZINC000507831344    0.4400
     46 H46       -10.3656    0.9694   63.7190 H       1  ZINC000507831344    0.1700
     47 H47       -11.6772    3.3536   59.4492 H       1  ZINC000507831344    0.0900
     48 H48       -10.5815    2.9791   58.0973 H       1  ZINC000507831344    0.1000
     49 H49       -12.1938    2.2285   58.1701 H       1  ZINC000507831344    0.0900
     50 H50       -13.5682   -0.7431   53.2398 H       1  ZINC000507831344    0.1600
     51 H51       -11.6924    1.1968   49.2095 H       1  ZINC000507831344    0.0700
     52 H52       -13.0379    0.0427   49.0523 H       1  ZINC000507831344    0.0500
     53 H53       -12.5696    2.4914   47.2904 H       1  ZINC000507831344    0.0700
     54 H54       -12.2701    0.7990   46.8246 H       1  ZINC000507831344    0.0700
     55 H55       -14.4752    1.6220   45.9873 H       1  ZINC000507831344    0.0700
     56 H56       -14.6605    0.2713   47.1332 H       1  ZINC000507831344    0.0600
     57 H57       -14.9393    3.2405   47.7901 H       1  ZINC000507831344    0.0700
     58 H58       -16.2698    2.0634   47.6682 H       1  ZINC000507831344    0.0700
     59 H59       -16.9032    2.5081   50.1008 H       1  ZINC000507831344    0.0600
     60 H60       -15.6243    2.4646   51.3381 H       1  ZINC000507831344    0.0500
     61 H61       -15.6148    3.7363   50.0927 H       1  ZINC000507831344    0.0600
@<TRIPOS>BOND
     1     1     2    1
     2     1    33    1
     3     1    34    1
     4     1    35    1
     5     2    24   ar
     6     2     3   ar
     7     3     4   ar
     8     3    36    1
     9     4     5    1
    10     4    22   ar
    11     5     6   am
    12     5    37    1
    13     6     7    2
    14     6     8    1
    15     8     9    1
    16     8    38    1
    17     8    39    1
    18     9    10    1
    19     9    40    1
    20     9    41    1
    21    10    20    1
    22    10    11    2
    23    11    12    1
    24    11    13    1
    25    12    42    1
    26    12    43    1
    27    12    44    1
    28    13    18    1
    29    13    14    1
    30    14    15   am
    31    14    45    1
    32    15    16    2
    33    15    17    1
    34    17    18    2
    35    17    46    1
    36    18    19    1
    37    19    20    2
    38    20    21    1
    39    21    47    1
    40    21    48    1
    41    21    49    1
    42    22    23   ar
    43    22    50    1
    44    23    24   ar
    45    24    25    1
    46    25    30    1
    47    25    26    1
    48    26    27    1
    49    26    51    1
    50    26    52    1
    51    27    28    1
    52    27    53    1
    53    27    54    1
    54    28    29    1
    55    28    55    1
    56    28    56    1
    57    29    30    1
    58    29    57    1
    59    29    58    1
    60    30    31    1
    61    30    32    1
    62    32    59    1
    63    32    60    1
    64    32    61    1
@<TRIPOS>SUBSTRUCTURE
     1 ZINC000507831344        1 TEMP              0 ****  ****    0 ROOT


##########                                Name:    ZINC001220212140
##########                DOCK_Rotatable_Bonds:                   6
##########                         Heavy_Atoms:                  28
##########                    Molecular_Weight:             379.459
##########                DOCK_Rotatable_Bonds:                   6
##########                       Formal_Charge:         -0.00999925
##########                     HBond_Acceptors:                   6
##########                        HBond_Donors:                   1
##########                         Heavy_Atoms:                  28
##########                          Grid_Score:          -26.534903
##########                     Grid_vdw_energy:          -25.535645
##########                      Grid_es_energy:           -0.999257
##########           Internal_energy_repulsive:           15.267592

@<TRIPOS>MOLECULE
ZINC001220212140
 53 56 1 0 0
SMALL
USER_CHARGES


@<TRIPOS>ATOM
      1 C1        -17.6829   -6.9578   52.3560 C.3     1  ZINC001220212140   -0.1700
      2 C2        -16.1560   -7.0548   52.3449 C.3     1  ZINC001220212140    0.0800
      3 H3        -15.8065   -7.5128   51.4197 H       1  ZINC001220212140    0.1200
      4 C4        -15.5168   -5.6598   52.5414 C.3     1  ZINC001220212140   -0.1100
      5 C5        -15.3186   -5.6144   54.0443 C.ar    1  ZINC001220212140   -0.1500
      6 C6        -15.0564   -4.5765   54.9097 C.ar    1  ZINC001220212140   -0.0700
      7 C7        -14.9270   -4.8247   56.2708 C.ar    1  ZINC001220212140    0.1400
      8 N8        -14.6605   -3.7721   57.1568 N.am    1  ZINC001220212140   -0.6800
      9 C9        -15.4153   -3.6139   58.2621 C.2     1  ZINC001220212140    0.7200
     10 O10       -16.3276   -4.3846   58.4905 O.2     1  ZINC001220212140   -0.5700
     11 N11       -15.1590   -2.6017   59.1141 N.am    1  ZINC001220212140   -0.6300
     12 C12       -14.0921   -1.6017   58.9606 C.3     1  ZINC001220212140    0.0900
     13 C13       -14.1991   -0.6304   60.1549 C.3     1  ZINC001220212140   -0.1100
     14 C14       -15.6716   -0.8031   60.6125 C.3     1  ZINC001220212140   -0.1300
     15 H15       -16.3431   -0.1957   60.0056 H       1  ZINC001220212140    0.1200
     16 C16       -15.8248   -0.4750   62.0753 C.2     1  ZINC001220212140    0.5300
     17 O17       -15.7753   -1.3598   62.9035 O.2     1  ZINC001220212140   -0.5100
     18 N18       -16.0168    0.8013   62.4632 N.am    1  ZINC001220212140   -0.5700
     19 C19       -16.0766    1.8698   61.4628 C.3     1  ZINC001220212140    0.0700
     20 C20       -16.1590    1.1058   63.8215 C.ar    1  ZINC001220212140    0.1400
     21 C21       -17.3283    1.6955   64.2837 C.ar    1  ZINC001220212140   -0.1100
     22 C22       -17.4656    1.9948   65.6250 C.ar    1  ZINC001220212140   -0.1100
     23 C23       -16.4401    1.7082   66.5073 C.ar    1  ZINC001220212140   -0.1200
     24 C24       -15.2744    1.1215   66.0502 C.ar    1  ZINC001220212140   -0.1100
     25 C25       -15.1334    0.8137   64.7112 C.ar    1  ZINC001220212140   -0.1200
     26 C26       -15.9059   -2.3097   60.3511 C.3     1  ZINC001220212140    0.1400
     27 C27       -15.0639   -6.1210   56.7478 C.ar    1  ZINC001220212140   -0.1100
     28 C28       -15.3231   -7.1586   55.8771 C.ar    1  ZINC001220212140   -0.1200
     29 C29       -15.4501   -6.9159   54.5119 C.ar    1  ZINC001220212140    0.0900
     30 O30       -15.6841   -7.7895   53.4870 O.3     1  ZINC001220212140   -0.3000
     31 H31       -18.0117   -6.5090   53.2935 H       1  ZINC001220212140    0.0600
     32 H32       -18.0138   -6.3394   51.5216 H       1  ZINC001220212140    0.0800
     33 H33       -18.1111   -7.9556   52.2610 H       1  ZINC001220212140    0.0700
     34 H34       -14.5619   -5.5921   52.0204 H       1  ZINC001220212140    0.0900
     35 H35       -16.1943   -4.8712   52.2140 H       1  ZINC001220212140    0.0900
     36 H36       -14.9514   -3.5704   54.5312 H       1  ZINC001220212140    0.1400
     37 H37       -13.9326   -3.1572   56.9747 H       1  ZINC001220212140    0.4100
     38 H38       -13.1192   -2.0935   58.9687 H       1  ZINC001220212140    0.0700
     39 H39       -14.2265   -1.0567   58.0262 H       1  ZINC001220212140    0.0700
     40 H40       -13.5118   -0.9194   60.9500 H       1  ZINC001220212140    0.1000
     41 H41       -14.0122    0.3950   59.8360 H       1  ZINC001220212140    0.0900
     42 H42       -17.1079    2.0055   61.1373 H       1  ZINC001220212140    0.0700
     43 H43       -15.7087    2.7980   61.9000 H       1  ZINC001220212140    0.0800
     44 H44       -15.4578    1.6011   60.6067 H       1  ZINC001220212140    0.0800
     45 H45       -18.1293    1.9201   63.5950 H       1  ZINC001220212140    0.1200
     46 H46       -18.3747    2.4533   65.9850 H       1  ZINC001220212140    0.1300
     47 H47       -16.5497    1.9436   67.5556 H       1  ZINC001220212140    0.1300
     48 H48       -14.4750    0.8997   66.7417 H       1  ZINC001220212140    0.1300
     49 H49       -14.2228    0.3555   64.3548 H       1  ZINC001220212140    0.1200
     50 H50       -16.9684   -2.5100   60.2130 H       1  ZINC001220212140    0.0900
     51 H51       -15.5112   -2.9035   61.1755 H       1  ZINC001220212140    0.0700
     52 H52       -14.9665   -6.3179   57.8052 H       1  ZINC001220212140    0.1300
     53 H53       -15.4283   -8.1645   56.2560 H       1  ZINC001220212140    0.1300
@<TRIPOS>BOND
     1     1     2    1
     2     1    31    1
     3     1    32    1
     4     1    33    1
     5     2     3    1
     6     2    30    1
     7     2     4    1
     8     4     5    1
     9     4    34    1
    10     4    35    1
    11     5    29   ar
    12     5     6   ar
    13     6     7   ar
    14     6    36    1
    15     7     8    1
    16     7    27   ar
    17     8     9   am
    18     8    37    1
    19     9    10    2
    20     9    11   am
    21    11    26    1
    22    11    12    1
    23    12    13    1
    24    12    38    1
    25    12    39    1
    26    13    14    1
    27    13    40    1
    28    13    41    1
    29    14    15    1
    30    14    16    1
    31    14    26    1
    32    16    17    2
    33    16    18   am
    34    18    19    1
    35    18    20    1
    36    19    42    1
    37    19    43    1
    38    19    44    1
    39    20    25   ar
    40    20    21   ar
    41    21    22   ar
    42    21    45    1
    43    22    23   ar
    44    22    46    1
    45    23    24   ar
    46    23    47    1
    47    24    25   ar
    48    24    48    1
    49    25    49    1
    50    26    50    1
    51    26    51    1
    52    27    28   ar
    53    27    52    1
    54    28    29   ar
    55    28    53    1
    56    29    30    1
@<TRIPOS>SUBSTRUCTURE
     1 ZINC001220212140        1 TEMP              0 ****  ****    0 ROOT


##########                                Name:    ZINC000763800048
##########                DOCK_Rotatable_Bonds:                   8
##########                         Heavy_Atoms:                  23
##########                    Molecular_Weight:             329.783
##########                DOCK_Rotatable_Bonds:                   8
##########                       Formal_Charge:           0.0199994
##########                     HBond_Acceptors:                   5
##########                        HBond_Donors:                   1
##########                         Heavy_Atoms:                  23
##########                          Grid_Score:          -26.491665
##########                     Grid_vdw_energy:          -25.977880
##########                      Grid_es_energy:           -0.513785
##########           Internal_energy_repulsive:            6.954673

@<TRIPOS>MOLECULE
ZINC000763800048
 39 40 1 0 0
SMALL
USER_CHARGES


@<TRIPOS>ATOM
      1 C1         -6.3091   -0.5330   51.6143 C.3     1  ZINC000763800048    0.0400
      2 O2         -6.5496    0.1016   52.8980 O.3     1  ZINC000763800048   -0.3600
      3 C3         -7.2357    1.2552   52.8885 C.2     1  ZINC000763800048    0.4600
      4 O4         -7.5212    1.7796   51.8381 O.2     1  ZINC000763800048   -0.4900
      5 C5         -7.6497    1.8963   54.1879 C.3     1  ZINC000763800048   -0.0700
      6 C6         -8.8717    1.1974   54.7259 C.ar    1  ZINC000763800048   -0.0600
      7 C7         -9.7981    0.6565   53.8535 C.ar    1  ZINC000763800048   -0.1200
      8 C8        -10.9209    0.0142   54.3432 C.ar    1  ZINC000763800048   -0.1000
      9 C9        -11.1199   -0.0893   55.7057 C.ar    1  ZINC000763800048   -0.1100
     10 C10       -10.1908    0.4527   56.5849 C.ar    1  ZINC000763800048    0.1500
     11 N11       -10.3892    0.3496   57.9651 N.am    1  ZINC000763800048   -0.6700
     12 C12        -9.7747   -0.6257   58.6633 C.2     1  ZINC000763800048    0.5500
     13 O13        -9.0468   -1.4168   58.0924 O.2     1  ZINC000763800048   -0.5200
     14 C14        -9.9824   -0.7336   60.1079 C.2     1  ZINC000763800048   -0.2100
     15 C15       -10.8285   -1.6614   60.6001 C.2     1  ZINC000763800048   -0.0100
     16 C16       -11.5442   -2.5640   59.6844 C.ar    1  ZINC000763800048   -0.0800
     17 C17       -10.9634   -3.7755   59.2955 C.ar    1  ZINC000763800048   -0.0900
     18 C18       -11.6395   -4.6160   58.4375 C.ar    1  ZINC000763800048   -0.1100
     19 C19       -12.8913   -4.2630   57.9599 C.ar    1  ZINC000763800048   -0.0200
     20 Cl20      -13.7352   -5.3276   56.8792 Cl      1  ZINC000763800048   -0.0600
     21 C21       -13.4729   -3.0647   58.3411 C.ar    1  ZINC000763800048   -0.1100
     22 C22       -12.8109   -2.2171   59.2032 C.ar    1  ZINC000763800048   -0.0800
     23 C23        -9.0620    1.0927   56.0900 C.ar    1  ZINC000763800048   -0.1300
     24 H24        -5.7461   -1.4542   51.7642 H       1  ZINC000763800048    0.1000
     25 H25        -7.2623   -0.7631   51.1384 H       1  ZINC000763800048    0.0600
     26 H26        -5.7382    0.1419   50.9767 H       1  ZINC000763800048    0.0600
     27 H27        -6.8367    1.8134   54.9092 H       1  ZINC000763800048    0.1200
     28 H28        -7.8785    2.9483   54.0174 H       1  ZINC000763800048    0.1200
     29 H29        -9.6448    0.7361   52.7875 H       1  ZINC000763800048    0.1200
     30 H30       -11.6430   -0.4066   53.6591 H       1  ZINC000763800048    0.1300
     31 H31       -11.9970   -0.5907   56.0874 H       1  ZINC000763800048    0.1400
     32 H32       -10.9693    0.9800   58.4201 H       1  ZINC000763800048    0.4100
     33 H33        -9.4581   -0.0703   60.7798 H       1  ZINC000763800048    0.1300
     34 H34       -10.9808   -1.7419   61.6662 H       1  ZINC000763800048    0.1400
     35 H35        -9.9874   -4.0517   59.6665 H       1  ZINC000763800048    0.1400
     36 H36       -11.1923   -5.5519   58.1365 H       1  ZINC000763800048    0.1400
     37 H37       -14.4490   -2.7960   57.9650 H       1  ZINC000763800048    0.1400
     38 H38       -13.2655   -1.2834   59.4997 H       1  ZINC000763800048    0.1400
     39 H39        -8.3376    1.5147   56.7709 H       1  ZINC000763800048    0.1300
@<TRIPOS>BOND
     1     1     2    1
     2     1    24    1
     3     1    25    1
     4     1    26    1
     5     2     3    1
     6     3     4    2
     7     3     5    1
     8     5     6    1
     9     5    27    1
    10     5    28    1
    11     6    23   ar
    12     6     7   ar
    13     7     8   ar
    14     7    29    1
    15     8     9   ar
    16     8    30    1
    17     9    10   ar
    18     9    31    1
    19    10    11    1
    20    10    23   ar
    21    11    12   am
    22    11    32    1
    23    12    13    2
    24    12    14    1
    25    14    15    2
    26    14    33    1
    27    15    16    1
    28    15    34    1
    29    16    22   ar
    30    16    17   ar
    31    17    18   ar
    32    17    35    1
    33    18    19   ar
    34    18    36    1
    35    19    20    1
    36    19    21   ar
    37    21    22   ar
    38    21    37    1
    39    22    38    1
    40    23    39    1
@<TRIPOS>SUBSTRUCTURE
     1 ZINC000763800048        1 TEMP              0 ****  ****    0 ROOT


##########                                Name:    ZINC000444205493
##########                DOCK_Rotatable_Bonds:                   4
##########                         Heavy_Atoms:                  24
##########                    Molecular_Weight:             415.351
##########                DOCK_Rotatable_Bonds:                   4
##########                       Formal_Charge:         -0.00999995
##########                     HBond_Acceptors:                   6
##########                        HBond_Donors:                   1
##########                         Heavy_Atoms:                  24
##########                          Grid_Score:          -26.479465
##########                     Grid_vdw_energy:          -24.788626
##########                      Grid_es_energy:           -1.690839
##########           Internal_energy_repulsive:            8.494984

@<TRIPOS>MOLECULE
ZINC000444205493
 47 49 1 0 0
SMALL
USER_CHARGES


@<TRIPOS>ATOM
      1 C1        -10.9521    1.4217   65.8975 C.3     1  ZINC000444205493   -0.1700
      2 C2        -10.9176    0.8110   64.5202 C.2     1  ZINC000444205493    0.5100
      3 O3        -11.9312    0.3573   64.0325 O.2     1  ZINC000444205493   -0.5100
      4 N4         -9.7605    0.7688   63.8305 N.am    1  ZINC000444205493   -0.6800
      5 C5         -9.7285    0.2016   62.5515 C.ar    1  ZINC000444205493    0.2300
      6 C6         -9.2048   -1.0708   62.3676 C.ar    1  ZINC000444205493   -0.1400
      7 C7         -9.1751   -1.6282   61.1039 C.ar    1  ZINC000444205493    0.0200
      8 C8         -9.6657   -0.9203   60.0224 C.ar    1  ZINC000444205493   -0.6900
      9 S9         -9.6251   -1.6351   58.4124 S.o2    1  ZINC000444205493    2.7100
     10 O10        -8.8230   -0.7772   57.6125 O.2     1  ZINC000444205493   -0.9500
     11 O11        -9.3442   -3.0163   58.5936 O.2     1  ZINC000444205493   -0.9500
     12 N12       -11.1604   -1.5470   57.7981 N.am    1  ZINC000444205493   -1.0100
     13 C13       -11.9283   -0.3072   57.5759 C.3     1  ZINC000444205493    0.1200
     14 C14       -12.9600   -0.6672   56.4753 C.3     1  ZINC000444205493   -0.1200
     15 C15       -13.3018   -2.1247   56.8405 C.3     1  ZINC000444205493   -0.0700
     16 C16       -14.4100   -2.1772   57.8972 C.3     1  ZINC000444205493   -0.1100
     17 C17       -15.6968   -2.4513   57.0752 C.3     1  ZINC000444205493   -0.1200
     18 C18       -15.2014   -3.4180   55.9697 C.3     1  ZINC000444205493   -0.1000
     19 H19       -15.1488   -4.4380   56.3504 H       1  ZINC000444205493    0.0700
     20 C20       -16.1205   -3.3506   54.7484 C.3     1  ZINC000444205493   -0.1500
     21 C21       -13.7891   -2.8992   55.6164 C.3     1  ZINC000444205493   -0.1100
     22 C22       -11.9838   -2.6932   57.3765 C.3     1  ZINC000444205493    0.1300
     23 C23       -10.1886    0.3474   60.2014 C.ar    1  ZINC000444205493    0.0300
     24 C24       -10.2262    0.9086   61.4634 C.ar    1  ZINC000444205493   -0.1500
     25 Br25      -10.9412    2.6422   61.7077 Br      1  ZINC000444205493   -0.0300
     26 H26       -11.9657    1.3656   66.2945 H       1  ZINC000444205493    0.1000
     27 H27       -10.2740    0.8763   66.5539 H       1  ZINC000444205493    0.1000
     28 H28       -10.6416    2.4649   65.8402 H       1  ZINC000444205493    0.1000
     29 H29        -8.9499    1.1316   64.2207 H       1  ZINC000444205493    0.4200
     30 H30        -8.8207   -1.6244   63.2118 H       1  ZINC000444205493    0.1600
     31 H31        -8.7678   -2.6182   60.9606 H       1  ZINC000444205493    0.1500
     32 H32       -12.4393   -0.0087   58.4914 H       1  ZINC000444205493    0.0800
     33 H33       -11.2694    0.4900   57.2316 H       1  ZINC000444205493    0.0800
     34 H34       -13.8420   -0.0301   56.5425 H       1  ZINC000444205493    0.0900
     35 H35       -12.5111   -0.6074   55.4838 H       1  ZINC000444205493    0.0800
     36 H36       -14.2273   -2.9874   58.6031 H       1  ZINC000444205493    0.0700
     37 H37       -14.4859   -1.2236   58.4196 H       1  ZINC000444205493    0.0700
     38 H38       -16.4556   -2.9297   57.6944 H       1  ZINC000444205493    0.0700
     39 H39       -16.0792   -1.5289   56.6382 H       1  ZINC000444205493    0.0700
     40 H40       -16.1467   -2.3290   54.3693 H       1  ZINC000444205493    0.0500
     41 H41       -15.7431   -4.0165   53.9724 H       1  ZINC000444205493    0.0500
     42 H42       -17.1266   -3.6583   55.0333 H       1  ZINC000444205493    0.0500
     43 H43       -13.8379   -2.2393   54.7503 H       1  ZINC000444205493    0.0700
     44 H44       -13.1220   -3.7369   55.4130 H       1  ZINC000444205493    0.0700
     45 H45       -11.4754   -3.2555   56.5933 H       1  ZINC000444205493    0.0700
     46 H46       -12.1783   -3.3395   58.2325 H       1  ZINC000444205493    0.0800
     47 H47       -10.5713    0.8977   59.3546 H       1  ZINC000444205493    0.1500
@<TRIPOS>BOND
     1     1     2    1
     2     1    26    1
     3     1    27    1
     4     1    28    1
     5     2     3    2
     6     2     4   am
     7     4     5    1
     8     4    29    1
     9     5    24   ar
    10     5     6   ar
    11     6     7   ar
    12     6    30    1
    13     7     8   ar
    14     7    31    1
    15     8     9    1
    16     8    23   ar
    17     9    10    2
    18     9    11    2
    19     9    12   am
    20    12    22    1
    21    12    13    1
    22    13    14    1
    23    13    32    1
    24    13    33    1
    25    14    15    1
    26    14    34    1
    27    14    35    1
    28    15    21    1
    29    15    16    1
    30    15    22    1
    31    16    17    1
    32    16    36    1
    33    16    37    1
    34    17    18    1
    35    17    38    1
    36    17    39    1
    37    18    19    1
    38    18    20    1
    39    18    21    1
    40    20    40    1
    41    20    41    1
    42    20    42    1
    43    21    43    1
    44    21    44    1
    45    22    45    1
    46    22    46    1
    47    23    24   ar
    48    23    47    1
    49    24    25    1
@<TRIPOS>SUBSTRUCTURE
     1 ZINC000444205493        1 TEMP              0 ****  ****    0 ROOT


##########                                Name:    ZINC000618094467
##########                DOCK_Rotatable_Bonds:                   5
##########                         Heavy_Atoms:                  27
##########                    Molecular_Weight:             370.492
##########                DOCK_Rotatable_Bonds:                   5
##########                       Formal_Charge:                0.03
##########                     HBond_Acceptors:                   5
##########                        HBond_Donors:                   0
##########                         Heavy_Atoms:                  27
##########                          Grid_Score:          -26.471653
##########                     Grid_vdw_energy:          -26.113497
##########                      Grid_es_energy:           -0.358155
##########           Internal_energy_repulsive:          105.597862

@<TRIPOS>MOLECULE
ZINC000618094467
 57 59 1 0 0
SMALL
USER_CHARGES


@<TRIPOS>ATOM
      1 C1        -16.3723   -0.7381   60.7409 C.3     1  ZINC000618094467   -0.1500
      2 C2        -14.9377   -1.1721   60.4332 C.3     1  ZINC000618094467   -0.1000
      3 C3        -13.9929   -0.5965   61.4900 C.3     1  ZINC000618094467   -0.1100
      4 H4        -14.0532    0.4917   61.4772 H       1  ZINC000618094467    0.1000
      5 C5        -14.3980   -1.1134   62.8720 C.3     1  ZINC000618094467   -0.1500
      6 C6        -12.5802   -1.0251   61.1877 C.2     1  ZINC000618094467    0.5200
      7 O7        -12.3772   -2.0058   60.5037 O.2     1  ZINC000618094467   -0.5000
      8 N8        -11.5422   -0.3185   61.6773 N.am    1  ZINC000618094467   -0.6100
      9 C9        -11.7540    0.8721   62.5075 C.3     1  ZINC000618094467    0.1400
     10 C10       -10.8212    0.8379   63.6919 C.ar    1  ZINC000618094467   -0.1000
     11 C11       -11.0399    1.7499   64.7150 C.ar    1  ZINC000618094467   -0.1100
     12 C12       -10.2138    1.7743   65.8201 C.ar    1  ZINC000618094467   -0.1200
     13 C13        -9.1599    0.8844   65.9077 C.ar    1  ZINC000618094467   -0.1100
     14 C14        -8.9439   -0.0252   64.8933 C.ar    1  ZINC000618094467   -0.1200
     15 C15        -9.7777   -0.0561   63.7823 C.ar    1  ZINC000618094467   -0.0600
     16 C16        -9.4976   -1.0942   62.7278 C.3     1  ZINC000618094467   -0.0800
     17 C17       -10.1505   -0.7143   61.4056 C.3     1  ZINC000618094467    0.1200
     18 H18        -9.6150    0.1224   60.9570 H       1  ZINC000618094467    0.1000
     19 C19       -10.1287   -1.8946   60.4687 C.2     1  ZINC000618094467    0.5500
     20 O20       -10.3060   -3.0143   60.8997 O.2     1  ZINC000618094467   -0.5200
     21 N21        -9.9122   -1.7057   59.1520 N.am    1  ZINC000618094467   -0.6100
     22 C22        -9.8952   -2.8490   58.2305 C.3     1  ZINC000618094467    0.1200
     23 C23       -10.9564   -2.6248   57.1458 C.3     1  ZINC000618094467   -0.1600
     24 H24       -10.8299   -3.3601   56.3511 H       1  ZINC000618094467    0.1100
     25 C25       -12.3530   -2.7606   57.7556 C.3     1  ZINC000618094467   -0.1400
     26 C26       -10.7785   -1.2314   56.5837 C.2     1  ZINC000618094467    0.3700
     27 O27       -10.6654   -1.0541   55.3945 O.2     1  ZINC000618094467   -0.4400
     28 C28       -10.7464   -0.0657   57.5474 C.3     1  ZINC000618094467   -0.1600
     29 H29       -11.7239    0.0508   58.0153 H       1  ZINC000618094467    0.1100
     30 C30       -10.3798    1.2150   56.7948 C.3     1  ZINC000618094467   -0.1400
     31 C31        -9.6964   -0.3535   58.6211 C.3     1  ZINC000618094467    0.1400
     32 H32       -16.4331    0.3502   60.7286 H       1  ZINC000618094467    0.0500
     33 H33       -17.0453   -1.1482   59.9880 H       1  ZINC000618094467    0.0600
     34 H34       -16.6602   -1.1070   61.7254 H       1  ZINC000618094467    0.0600
     35 H35       -14.8769   -2.2604   60.4456 H       1  ZINC000618094467    0.0700
     36 H36       -14.6498   -0.8032   59.4488 H       1  ZINC000618094467    0.0700
     37 H37       -14.4713   -2.2006   62.8461 H       1  ZINC000618094467    0.0700
     38 H38       -13.6475   -0.8172   63.6049 H       1  ZINC000618094467    0.0700
     39 H39       -15.3635   -0.6905   63.1494 H       1  ZINC000618094467    0.0700
     40 H40       -11.5567    1.7663   61.9162 H       1  ZINC000618094467    0.0900
     41 H41       -12.7857    0.8906   62.8587 H       1  ZINC000618094467    0.1100
     42 H42       -11.8627    2.4462   64.6455 H       1  ZINC000618094467    0.1300
     43 H43       -10.3898    2.4860   66.6132 H       1  ZINC000618094467    0.1300
     44 H44        -8.5070    0.9012   66.7678 H       1  ZINC000618094467    0.1200
     45 H45        -8.1193   -0.7192   64.9631 H       1  ZINC000618094467    0.1200
     46 H46        -8.4202   -1.1794   62.5858 H       1  ZINC000618094467    0.0900
     47 H47        -9.8921   -2.0555   63.0573 H       1  ZINC000618094467    0.1000
     48 H48        -8.9116   -2.9311   57.7680 H       1  ZINC000618094467    0.0700
     49 H49       -10.1208   -3.7637   58.7788 H       1  ZINC000618094467    0.0900
     50 H50       -12.5109   -1.9643   58.4830 H       1  ZINC000618094467    0.0600
     51 H51       -13.1023   -2.6865   56.9675 H       1  ZINC000618094467    0.0600
     52 H52       -12.4409   -3.7277   58.2506 H       1  ZINC000618094467    0.0700
     53 H53       -11.1227    1.4065   56.0204 H       1  ZINC000618094467    0.0700
     54 H54       -10.3576    2.0525   57.4921 H       1  ZINC000618094467    0.0700
     55 H55        -9.3982    1.0983   56.3356 H       1  ZINC000618094467    0.0600
     56 H56        -9.7884    0.3751   59.4266 H       1  ZINC000618094467    0.1100
     57 H57        -8.7001   -0.2935   58.1834 H       1  ZINC000618094467    0.0700
@<TRIPOS>BOND
     1     1     2    1
     2     1    32    1
     3     1    33    1
     4     1    34    1
     5     2     3    1
     6     2    35    1
     7     2    36    1
     8     3     4    1
     9     3     5    1
    10     3     6    1
    11     5    37    1
    12     5    38    1
    13     5    39    1
    14     6     7    2
    15     6     8   am
    16     8    17    1
    17     8     9    1
    18     9    10    1
    19     9    40    1
    20     9    41    1
    21    10    15   ar
    22    10    11   ar
    23    11    12   ar
    24    11    42    1
    25    12    13   ar
    26    12    43    1
    27    13    14   ar
    28    13    44    1
    29    14    15   ar
    30    14    45    1
    31    15    16    1
    32    16    17    1
    33    16    46    1
    34    16    47    1
    35    17    18    1
    36    17    19    1
    37    19    20    2
    38    19    21   am
    39    21    31    1
    40    21    22    1
    41    22    23    1
    42    22    48    1
    43    22    49    1
    44    23    24    1
    45    23    25    1
    46    23    26    1
    47    25    50    1
    48    25    51    1
    49    25    52    1
    50    26    27    2
    51    26    28    1
    52    28    29    1
    53    28    30    1
    54    28    31    1
    55    30    53    1
    56    30    54    1
    57    30    55    1
    58    31    56    1
    59    31    57    1
@<TRIPOS>SUBSTRUCTURE
     1 ZINC000618094467        1 TEMP              0 ****  ****    0 ROOT


##########                                Name:    ZINC000484424341
##########                DOCK_Rotatable_Bonds:                   7
##########                         Heavy_Atoms:                  26
##########                    Molecular_Weight:             359.425
##########                DOCK_Rotatable_Bonds:                   7
##########                       Formal_Charge:          -0.0100009
##########                     HBond_Acceptors:                   7
##########                        HBond_Donors:                   1
##########                         Heavy_Atoms:                  26
##########                          Grid_Score:          -26.471138
##########                     Grid_vdw_energy:          -27.086765
##########                      Grid_es_energy:            0.615628
##########           Internal_energy_repulsive:           18.572966

@<TRIPOS>MOLECULE
ZINC000484424341
 51 53 1 0 0
SMALL
USER_CHARGES


@<TRIPOS>ATOM
      1 C1        -10.2624    3.5546   54.1796 C.3     1  ZINC000484424341    0.0300
      2 O2         -9.9262    2.4960   53.2805 O.3     1  ZINC000484424341   -0.3800
      3 C3         -9.0506    1.5147   53.8395 C.3     1  ZINC000484424341    0.1300
      4 H4         -8.3076    2.0063   54.4673 H       1  ZINC000484424341    0.0700
      5 C5         -8.3456    0.7586   52.7117 C.3     1  ZINC000484424341   -0.1700
      6 C6         -9.8492    0.5450   54.6719 C.ar    1  ZINC000484424341   -0.0700
      7 C7        -11.0766    0.0954   54.2210 C.ar    1  ZINC000484424341   -0.1000
      8 C8        -11.8128   -0.7947   54.9817 C.ar    1  ZINC000484424341   -0.1000
      9 C9        -11.3241   -1.2373   56.1948 C.ar    1  ZINC000484424341   -0.1100
     10 C10       -10.0910   -0.7877   56.6511 C.ar    1  ZINC000484424341    0.1400
     11 N11        -9.5932   -1.2339   57.8780 N.am    1  ZINC000484424341   -0.6400
     12 C12       -10.1042   -0.7517   59.0281 C.2     1  ZINC000484424341    0.5100
     13 O13       -10.9969    0.0701   58.9982 O.2     1  ZINC000484424341   -0.4900
     14 C14        -9.5721   -1.2288   60.3396 C.2     1  ZINC000484424341    0.5200
     15 O15        -8.8862   -2.2288   60.3886 O.2     1  ZINC000484424341   -0.5200
     16 N16        -9.8535   -0.5486   61.4686 N.am    1  ZINC000484424341   -0.5800
     17 C17       -10.6679    0.6725   61.5529 C.3     1  ZINC000484424341    0.1100
     18 C18       -10.7380    1.0747   63.0411 C.3     1  ZINC000484424341   -0.1500
     19 C19       -10.4316   -0.2571   63.7758 C.3     1  ZINC000484424341    0.1500
     20 H20       -11.3272   -0.8731   63.8578 H       1  ZINC000484424341    0.1100
     21 N21        -9.8475   -0.0064   65.0957 N.am    1  ZINC000484424341   -0.6100
     22 C22        -8.7593   -0.7965   65.6835 C.3     1  ZINC000484424341    0.1000
     23 C23        -8.1956    0.0688   66.8322 C.3     1  ZINC000484424341   -0.1300
     24 C24        -9.4155    0.9481   67.1924 C.3     1  ZINC000484424341   -0.1600
     25 C25       -10.2357    0.9806   65.9217 C.2     1  ZINC000484424341    0.5200
     26 O26       -11.1197    1.7765   65.6857 O.2     1  ZINC000484424341   -0.5200
     27 C27        -9.4010   -0.9095   62.8245 C.3     1  ZINC000484424341    0.0900
     28 C28        -9.3517    0.1019   55.8819 C.ar    1  ZINC000484424341   -0.1300
     29 H29        -9.3539    4.0722   54.4874 H       1  ZINC000484424341    0.0400
     30 H30       -10.9295    4.2573   53.6801 H       1  ZINC000484424341    0.0900
     31 H31       -10.7605    3.1417   55.0568 H       1  ZINC000484424341    0.0400
     32 H32        -9.0886    0.2669   52.0839 H       1  ZINC000484424341    0.0700
     33 H33        -7.7680    1.4599   52.1097 H       1  ZINC000484424341    0.0600
     34 H34        -7.6777    0.0100   53.1382 H       1  ZINC000484424341    0.0700
     35 H35       -11.4614    0.4403   53.2727 H       1  ZINC000484424341    0.1300
     36 H36       -12.7713   -1.1435   54.6267 H       1  ZINC000484424341    0.1300
     37 H37       -11.8996   -1.9321   56.7885 H       1  ZINC000484424341    0.1300
     38 H38        -8.8798   -1.8908   57.9019 H       1  ZINC000484424341    0.4200
     39 H39       -10.2010    1.4700   60.9749 H       1  ZINC000484424341    0.0800
     40 H40       -11.6710    0.4759   61.1743 H       1  ZINC000484424341    0.0800
     41 H41        -9.9832    1.8258   63.2736 H       1  ZINC000484424341    0.0900
     42 H42       -11.7344    1.4355   63.2965 H       1  ZINC000484424341    0.0900
     43 H43        -9.1453   -1.7378   66.0748 H       1  ZINC000484424341    0.0800
     44 H44        -7.9858   -0.9856   64.9391 H       1  ZINC000484424341    0.0800
     45 H45        -7.8983   -0.5512   67.6780 H       1  ZINC000484424341    0.0900
     46 H46        -7.3621    0.6806   66.4870 H       1  ZINC000484424341    0.0800
     47 H47        -9.9835    0.4974   68.0063 H       1  ZINC000484424341    0.1100
     48 H48        -9.0943    1.9543   67.4617 H       1  ZINC000484424341    0.1000
     49 H49        -9.3991   -1.9920   62.9519 H       1  ZINC000484424341    0.0900
     50 H50        -8.4060   -0.5035   63.0071 H       1  ZINC000484424341    0.0900
     51 H51        -8.3928    0.4531   56.2333 H       1  ZINC000484424341    0.1300
@<TRIPOS>BOND
     1     1     2    1
     2     1    29    1
     3     1    30    1
     4     1    31    1
     5     2     3    1
     6     3     4    1
     7     3     5    1
     8     3     6    1
     9     5    32    1
    10     5    33    1
    11     5    34    1
    12     6    28   ar
    13     6     7   ar
    14     7     8   ar
    15     7    35    1
    16     8     9   ar
    17     8    36    1
    18     9    10   ar
    19     9    37    1
    20    10    11    1
    21    10    28   ar
    22    11    12   am
    23    11    38    1
    24    12    13    2
    25    12    14    1
    26    14    15    2
    27    14    16   am
    28    16    27    1
    29    16    17    1
    30    17    18    1
    31    17    39    1
    32    17    40    1
    33    18    19    1
    34    18    41    1
    35    18    42    1
    36    19    20    1
    37    19    21    1
    38    19    27    1
    39    21    25   am
    40    21    22    1
    41    22    23    1
    42    22    43    1
    43    22    44    1
    44    23    24    1
    45    23    45    1
    46    23    46    1
    47    24    25    1
    48    24    47    1
    49    24    48    1
    50    25    26    2
    51    27    49    1
    52    27    50    1
    53    28    51    1
@<TRIPOS>SUBSTRUCTURE
     1 ZINC000484424341        1 TEMP              0 ****  ****    0 ROOT


##########                                Name:    ZINC000899027326
##########                DOCK_Rotatable_Bonds:                   5
##########                         Heavy_Atoms:                  22
##########                    Molecular_Weight:             346.169
##########                DOCK_Rotatable_Bonds:                   5
##########                       Formal_Charge:           0.0300005
##########                     HBond_Acceptors:                   9
##########                        HBond_Donors:                   1
##########                         Heavy_Atoms:                  22
##########                          Grid_Score:          -26.458458
##########                     Grid_vdw_energy:          -24.800701
##########                      Grid_es_energy:           -1.657757
##########           Internal_energy_repulsive:           13.085606

@<TRIPOS>MOLECULE
ZINC000899027326
 35 36 1 0 0
SMALL
USER_CHARGES


@<TRIPOS>ATOM
      1 C1          0.6764    2.7451   51.1628 C.3     1  ZINC000899027326   -0.1500
      2 C2          1.1705    1.5180   50.3939 C.3     1  ZINC000899027326    0.1100
      3 H3          1.3483    0.6860   51.0753 H       1  ZINC000899027326    0.1400
      4 C4          0.1750    1.1249   49.3205 C.2     1  ZINC000899027326    0.5300
      5 O5         -0.9759    0.7792   49.4804 O.2     1  ZINC000899027326   -0.4500
      6 N6          0.8354    1.2402   48.1514 N.am    1  ZINC000899027326   -0.3700
      7 N7          0.2708    0.9682   46.8984 N.am    1  ZINC000899027326   -0.5000
      8 C8         -0.5524    1.8657   46.3210 C.2     1  ZINC000899027326    0.5200
      9 O9         -0.8031    2.9094   46.8855 O.2     1  ZINC000899027326   -0.4800
     10 C10        -1.1611    1.5723   44.9740 C.3     1  ZINC000899027326    0.0500
     11 O11        -0.1443    1.1119   44.0818 O.3     1  ZINC000899027326   -0.2700
     12 C12         0.7835    2.0213   43.6814 C.ar    1  ZINC000899027326    0.1400
     13 C13         0.6397    3.3569   44.0246 C.ar    1  ZINC000899027326   -0.1900
     14 C14         1.5838    4.2800   43.6167 C.ar    1  ZINC000899027326   -0.0600
     15 C15         2.6721    3.8728   42.8662 C.ar    1  ZINC000899027326   -0.0600
     16 Cl16        3.8567    5.0347   42.3559 Cl      1  ZINC000899027326   -0.0500
     17 C17         2.8183    2.5403   42.5221 C.ar    1  ZINC000899027326   -0.0600
     18 C18         1.8794    1.6130   42.9329 C.ar    1  ZINC000899027326   -0.0500
     19 Cl19        2.0626   -0.0586   42.5014 Cl      1  ZINC000899027326   -0.0300
     20 C20         2.0966    1.6473   48.3351 C.2     1  ZINC000899027326    0.7000
     21 O21         2.8881    1.8238   47.4298 O.2     1  ZINC000899027326   -0.5200
     22 N22         2.3929    1.8383   49.6368 N.am    1  ZINC000899027326   -0.6200
     23 C23         3.6767    2.2809   50.1865 C.3     1  ZINC000899027326    0.1200
     24 H24         0.4925    3.5616   50.4645 H       1  ZINC000899027326    0.0700
     25 H25        -0.2478    2.4986   51.6852 H       1  ZINC000899027326    0.0900
     26 H26         1.4328    3.0493   51.8863 H       1  ZINC000899027326    0.0900
     27 H27         0.4723    0.1339   46.4464 H       1  ZINC000899027326    0.4300
     28 H28        -1.9262    0.8034   45.0807 H       1  ZINC000899027326    0.1100
     29 H29        -1.6120    2.4803   44.5735 H       1  ZINC000899027326    0.1100
     30 H30        -0.2099    3.6758   44.6102 H       1  ZINC000899027326    0.1500
     31 H31         1.4716    5.3204   43.8837 H       1  ZINC000899027326    0.1500
     32 H32         3.6687    2.2242   41.9362 H       1  ZINC000899027326    0.1500
     33 H33         4.3847    2.4402   49.3732 H       1  ZINC000899027326    0.0900
     34 H34         3.5357    3.2133   50.7332 H       1  ZINC000899027326    0.0700
     35 H35         4.0649    1.5187   50.8621 H       1  ZINC000899027326    0.0700
@<TRIPOS>BOND
     1     1     2    1
     2     1    24    1
     3     1    25    1
     4     1    26    1
     5     2     3    1
     6     2    22    1
     7     2     4    1
     8     4     5    2
     9     4     6   am
    10     6     7    1
    11     6    20   am
    12     7     8   am
    13     7    27    1
    14     8     9    2
    15     8    10    1
    16    10    11    1
    17    10    28    1
    18    10    29    1
    19    11    12    1
    20    12    18   ar
    21    12    13   ar
    22    13    14   ar
    23    13    30    1
    24    14    15   ar
    25    14    31    1
    26    15    16    1
    27    15    17   ar
    28    17    18   ar
    29    17    32    1
    30    18    19    1
    31    20    21    2
    32    20    22   am
    33    22    23    1
    34    23    33    1
    35    23    34    1
    36    23    35    1
@<TRIPOS>SUBSTRUCTURE
     1 ZINC000899027326        1 TEMP              0 ****  ****    0 ROOT


##########                                Name:    ZINC000846412382
##########                DOCK_Rotatable_Bonds:                   6
##########                         Heavy_Atoms:                  26
##########                    Molecular_Weight:             370.475
##########                DOCK_Rotatable_Bonds:                   6
##########                       Formal_Charge:               -0.03
##########                     HBond_Acceptors:                   7
##########                        HBond_Donors:                   4
##########                         Heavy_Atoms:                  26
##########                          Grid_Score:          -26.429207
##########                     Grid_vdw_energy:          -26.018591
##########                      Grid_es_energy:           -0.410617
##########           Internal_energy_repulsive:           18.908876

@<TRIPOS>MOLECULE
ZINC000846412382
 48 50 1 0 0
SMALL
USER_CHARGES


@<TRIPOS>ATOM
      1 C1        -13.6819   -1.5117   55.1254 C.3     1  ZINC000846412382   -0.1400
      2 C2        -13.2984   -2.5667   56.1307 C.2     1  ZINC000846412382    0.0300
      3 C3        -14.0168   -3.6833   56.3039 C.2     1  ZINC000846412382   -0.2700
      4 C4        -15.2369   -4.0154   55.5581 C.2     1  ZINC000846412382    0.6000
      5 O5        -16.3251   -3.6946   55.9978 O.2     1  ZINC000846412382   -0.5200
      6 N6        -15.1516   -4.6757   54.3862 N.am    1  ZINC000846412382   -0.7100
      7 C7        -16.3693   -5.0086   53.6427 C.3     1  ZINC000846412382    0.1200
      8 H8        -17.1686   -5.2493   54.3436 H       1  ZINC000846412382    0.1000
      9 C9        -16.7863   -3.8122   52.7850 C.3     1  ZINC000846412382   -0.1700
     10 C10       -16.1020   -6.2147   52.7402 C.3     1  ZINC000846412382    0.1700
     11 C11       -15.6456   -7.3995   53.5940 C.3     1  ZINC000846412382   -0.1400
     12 O12       -15.0805   -5.8864   51.7963 O.3     1  ZINC000846412382   -0.5500
     13 C13       -17.3655   -6.5822   52.0056 C.ar    1  ZINC000846412382   -0.1200
     14 C14       -17.2928   -7.1655   50.7544 C.ar    1  ZINC000846412382   -0.1100
     15 C15       -18.4517   -7.5026   50.0806 C.ar    1  ZINC000846412382   -0.1200
     16 C16       -19.6834   -7.2571   50.6582 C.ar    1  ZINC000846412382   -0.1200
     17 C17       -19.7560   -6.6746   51.9098 C.ar    1  ZINC000846412382   -0.1200
     18 C18       -18.5970   -6.3414   52.5853 C.ar    1  ZINC000846412382   -0.1000
     19 S19       -13.2985   -4.6955   57.5453 S.3     1  ZINC000846412382    0.2000
     20 C20       -11.9993   -3.5395   57.8056 C.ar    1  ZINC000846412382    0.1400
     21 N21       -10.9559   -3.5572   58.6428 N.ar    1  ZINC000846412382   -0.5300
     22 C22       -10.0916   -2.5686   58.6699 C.ar    1  ZINC000846412382    0.3900
     23 C23        -8.9340   -2.6397   59.6321 C.3     1  ZINC000846412382   -0.0900
     24 N24       -10.2027   -1.5148   57.8818 N.ar    1  ZINC000846412382   -0.5800
     25 C25       -11.2006   -1.4037   57.0183 C.ar    1  ZINC000846412382    0.5100
     26 N26       -11.3013   -0.2953   56.2021 N.pl3   1  ZINC000846412382   -0.8300
     27 C27       -12.1648   -2.4481   56.9415 C.ar    1  ZINC000846412382   -0.2500
     28 H28       -13.1377   -1.6805   54.1962 H       1  ZINC000846412382    0.0800
     29 H29       -14.7535   -1.5650   54.9336 H       1  ZINC000846412382    0.1100
     30 H30       -13.4318   -0.5266   55.5192 H       1  ZINC000846412382    0.0700
     31 H31       -14.2840   -4.9304   54.0350 H       1  ZINC000846412382    0.4000
     32 H32       -15.9869   -3.5716   52.0840 H       1  ZINC000846412382    0.0600
     33 H33       -17.6922   -4.0599   52.2318 H       1  ZINC000846412382    0.0800
     34 H34       -16.9766   -2.9529   53.4280 H       1  ZINC000846412382    0.0700
     35 H35       -16.4248   -7.6500   54.3140 H       1  ZINC000846412382    0.0700
     36 H36       -15.4552   -8.2588   52.9511 H       1  ZINC000846412382    0.0700
     37 H37       -14.7318   -7.1337   54.1254 H       1  ZINC000846412382    0.0700
     38 H38       -15.1981   -5.0247   51.3734 H       1  ZINC000846412382    0.3800
     39 H39       -16.3305   -7.3574   50.3032 H       1  ZINC000846412382    0.1300
     40 H40       -18.3949   -7.9576   49.1028 H       1  ZINC000846412382    0.1200
     41 H41       -20.5888   -7.5197   50.1314 H       1  ZINC000846412382    0.1200
     42 H42       -20.7183   -6.4824   52.3608 H       1  ZINC000846412382    0.1200
     43 H43       -18.6538   -5.8863   53.5632 H       1  ZINC000846412382    0.1300
     44 H44        -8.0896   -3.1315   59.1491 H       1  ZINC000846412382    0.0900
     45 H45        -8.6458   -1.6312   59.9289 H       1  ZINC000846412382    0.0900
     46 H46        -9.2292   -3.2076   60.5144 H       1  ZINC000846412382    0.0900
     47 H47       -10.8628    0.5329   56.4526 H       1  ZINC000846412382    0.4100
     48 H48       -11.8104   -0.3446   55.3780 H       1  ZINC000846412382    0.4200
@<TRIPOS>BOND
     1     1     2    1
     2     1    28    1
     3     1    29    1
     4     1    30    1
     5     2    27    1
     6     2     3    2
     7     3     4    1
     8     3    19    1
     9     4     5    2
    10     4     6   am
    11     6     7    1
    12     6    31    1
    13     7     8    1
    14     7     9    1
    15     7    10    1
    16     9    32    1
    17     9    33    1
    18     9    34    1
    19    10    11    1
    20    10    12    1
    21    10    13    1
    22    11    35    1
    23    11    36    1
    24    11    37    1
    25    12    38    1
    26    13    18   ar
    27    13    14   ar
    28    14    15   ar
    29    14    39    1
    30    15    16   ar
    31    15    40    1
    32    16    17   ar
    33    16    41    1
    34    17    18   ar
    35    17    42    1
    36    18    43    1
    37    19    20    1
    38    20    27   ar
    39    20    21   ar
    40    21    22   ar
    41    22    23    1
    42    22    24   ar
    43    23    44    1
    44    23    45    1
    45    23    46    1
    46    24    25   ar
    47    25    26    1
    48    25    27   ar
    49    26    47    1
    50    26    48    1
@<TRIPOS>SUBSTRUCTURE
     1 ZINC000846412382        1 TEMP              0 ****  ****    0 ROOT


##########                                Name:    ZINC000676564986
##########                DOCK_Rotatable_Bonds:                   5
##########                         Heavy_Atoms:                  25
##########                    Molecular_Weight:             347.444
##########                DOCK_Rotatable_Bonds:                   5
##########                       Formal_Charge:          -0.0100005
##########                     HBond_Acceptors:                   6
##########                        HBond_Donors:                   1
##########                         Heavy_Atoms:                  25
##########                          Grid_Score:          -26.428169
##########                     Grid_vdw_energy:          -26.932928
##########                      Grid_es_energy:            0.504758
##########           Internal_energy_repulsive:            7.162266

@<TRIPOS>MOLECULE
ZINC000676564986
 42 45 1 0 0
SMALL
USER_CHARGES


@<TRIPOS>ATOM
      1 C1        -16.0842   -6.9235   53.6239 C.3     1  ZINC000676564986    0.0800
      2 N2        -15.5856   -6.3923   54.8949 N.pl3   1  ZINC000676564986   -0.4800
      3 C3        -15.3367   -7.1098   56.0269 C.2     1  ZINC000676564986    0.2500
      4 N4        -14.9031   -6.3211   56.9669 N.2     1  ZINC000676564986   -0.4600
      5 C5        -14.8463   -5.0510   56.4992 C.ar    1  ZINC000676564986   -0.1100
      6 C6        -14.4670   -3.8131   57.0451 C.ar    1  ZINC000676564986    0.5100
      7 N7        -14.0277   -3.7213   58.3542 N.pl3   1  ZINC000676564986   -0.6900
      8 C8        -14.2070   -2.4739   59.1012 C.3     1  ZINC000676564986    0.1700
      9 C9        -12.9925   -2.2220   59.9572 C.ar    1  ZINC000676564986   -0.0800
     10 C10       -11.7496   -2.6594   59.5371 C.ar    1  ZINC000676564986   -0.1100
     11 C11       -10.6347   -2.4304   60.3188 C.ar    1  ZINC000676564986   -0.0700
     12 C12       -10.7626   -1.7595   61.5291 C.ar    1  ZINC000676564986   -0.1300
     13 S13        -9.3427   -1.4645   62.5297 S.3     1  ZINC000676564986   -0.0100
     14 C14        -9.7959   -0.0308   63.4483 C.ar    1  ZINC000676564986   -0.1000
     15 C15       -10.2611    1.1005   62.7889 C.ar    1  ZINC000676564986   -0.1200
     16 C16       -10.6159    2.2220   63.5120 C.ar    1  ZINC000676564986   -0.1000
     17 C17       -10.5088    2.2204   64.8909 C.ar    1  ZINC000676564986   -0.1200
     18 C18       -10.0462    1.0962   65.5505 C.ar    1  ZINC000676564986   -0.1000
     19 C19        -9.6945   -0.0308   64.8343 C.ar    1  ZINC000676564986   -0.1000
     20 C20       -12.0132   -1.3215   61.9481 C.ar    1  ZINC000676564986   -0.0700
     21 C21       -13.1229   -1.5490   61.1586 C.ar    1  ZINC000676564986   -0.1100
     22 N22       -14.5397   -2.7323   56.2749 N.ar    1  ZINC000676564986   -0.5900
     23 C23       -14.9572   -2.8105   55.0246 C.ar    1  ZINC000676564986    0.3600
     24 N24       -15.3228   -3.9479   54.4715 N.ar    1  ZINC000676564986   -0.5600
     25 C25       -15.2779   -5.0822   55.1623 C.ar    1  ZINC000676564986    0.3000
     26 H26       -15.2420   -7.2188   52.9980 H       1  ZINC000676564986    0.0800
     27 H27       -16.7161   -7.7909   53.8154 H       1  ZINC000676564986    0.0900
     28 H28       -16.6655   -6.1563   53.1124 H       1  ZINC000676564986    0.0900
     29 H29       -15.4790   -8.1755   56.1288 H       1  ZINC000676564986    0.2200
     30 H30       -13.6010   -4.4828   58.7771 H       1  ZINC000676564986    0.4200
     31 H31       -14.3369   -1.6474   58.4026 H       1  ZINC000676564986    0.0800
     32 H32       -15.0890   -2.5544   59.7367 H       1  ZINC000676564986    0.0800
     33 H33       -11.6510   -3.1810   58.5965 H       1  ZINC000676564986    0.1300
     34 H34        -9.6645   -2.7725   59.9903 H       1  ZINC000676564986    0.1400
     35 H35       -10.3448    1.1027   61.7121 H       1  ZINC000676564986    0.1200
     36 H36       -10.9772    3.1017   63.0002 H       1  ZINC000676564986    0.1300
     37 H37       -10.7867    3.0991   65.4539 H       1  ZINC000676564986    0.1300
     38 H38        -9.9637    1.0984   66.6273 H       1  ZINC000676564986    0.1300
     39 H39        -9.3336   -0.9083   65.3500 H       1  ZINC000676564986    0.1300
     40 H40       -12.1163   -0.7998   62.8881 H       1  ZINC000676564986    0.1300
     41 H41       -14.0949   -1.2089   61.4835 H       1  ZINC000676564986    0.1300
     42 H42       -15.0009   -1.9075   54.4337 H       1  ZINC000676564986    0.2000
@<TRIPOS>BOND
     1     1     2    1
     2     1    26    1
     3     1    27    1
     4     1    28    1
     5     2    25    1
     6     2     3    1
     7     3     4    2
     8     3    29    1
     9     4     5    1
    10     5    25   ar
    11     5     6   ar
    12     6     7    1
    13     6    22   ar
    14     7     8    1
    15     7    30    1
    16     8     9    1
    17     8    31    1
    18     8    32    1
    19     9    21   ar
    20     9    10   ar
    21    10    11   ar
    22    10    33    1
    23    11    12   ar
    24    11    34    1
    25    12    13    1
    26    12    20   ar
    27    13    14    1
    28    14    19   ar
    29    14    15   ar
    30    15    16   ar
    31    15    35    1
    32    16    17   ar
    33    16    36    1
    34    17    18   ar
    35    17    37    1
    36    18    19   ar
    37    18    38    1
    38    19    39    1
    39    20    21   ar
    40    20    40    1
    41    21    41    1
    42    22    23   ar
    43    23    24   ar
    44    23    42    1
    45    24    25   ar
@<TRIPOS>SUBSTRUCTURE
     1 ZINC000676564986        1 TEMP              0 ****  ****    0 ROOT


##########                                Name:    ZINC000879023512
##########                DOCK_Rotatable_Bonds:                   4
##########                         Heavy_Atoms:                  20
##########                    Molecular_Weight:             346.156
##########                DOCK_Rotatable_Bonds:                   4
##########                       Formal_Charge:        -5.96046e-08
##########                     HBond_Acceptors:                   7
##########                        HBond_Donors:                   1
##########                         Heavy_Atoms:                  20
##########                          Grid_Score:          -26.420792
##########                     Grid_vdw_energy:          -23.851589
##########                      Grid_es_energy:           -2.569202
##########           Internal_energy_repulsive:            2.138566

@<TRIPOS>MOLECULE
ZINC000879023512
 33 34 1 0 0
SMALL
USER_CHARGES


@<TRIPOS>ATOM
      1 O1        -11.6483   -1.6182   62.2337 O.2     1  ZINC000879023512   -0.5600
      2 C2        -10.7620   -1.1903   61.5197 C.2     1  ZINC000879023512    0.7200
      3 N3         -9.9079   -0.2598   61.9902 N.am    1  ZINC000879023512   -0.6800
      4 C4        -10.0448    0.2180   63.2988 C.ar    1  ZINC000879023512    0.1800
      5 C5        -10.7300    1.4014   63.5389 C.ar    1  ZINC000879023512   -0.0900
      6 C6        -10.8636    1.8707   64.8312 C.ar    1  ZINC000879023512   -0.0700
      7 C7        -10.3150    1.1629   65.8856 C.ar    1  ZINC000879023512   -0.0700
      8 Br8       -10.4999    1.8084   67.6534 Br      1  ZINC000879023512    0.0200
      9 C9         -9.6316   -0.0169   65.6491 C.ar    1  ZINC000879023512    0.0000
     10 N10        -9.0460   -0.7716   66.7798 N.pl3   1  ZINC000879023512    0.0200
     11 O11        -8.4443   -1.8100   66.5722 O.2     1  ZINC000879023512   -0.1500
     12 O12        -9.1657   -0.3541   67.9177 O.2     1  ZINC000879023512   -0.1300
     13 C13        -9.5004   -0.4938   64.3598 C.ar    1  ZINC000879023512   -0.0500
     14 N14       -10.6303   -1.6503   60.2598 N.am    1  ZINC000879023512   -0.6300
     15 C15        -9.6010   -1.2305   59.2976 C.3     1  ZINC000879023512    0.0900
     16 C16        -9.8585   -2.0012   57.9857 C.3     1  ZINC000879023512   -0.1200
     17 C17       -11.3565   -2.3894   58.0991 C.3     1  ZINC000879023512   -0.1400
     18 H18       -11.9984   -1.5649   57.7887 H       1  ZINC000879023512    0.1000
     19 C19       -11.6589   -3.6512   57.2885 C.3     1  ZINC000879023512    0.0700
     20 F20       -13.0299   -3.9242   57.3446 F       1  ZINC000879023512   -0.2100
     21 C21       -11.4904   -2.6624   59.6203 C.3     1  ZINC000879023512    0.1300
     22 H22        -9.1984    0.0787   61.4220 H       1  ZINC000879023512    0.4200
     23 H23       -11.1578    1.9548   62.7160 H       1  ZINC000879023512    0.1600
     24 H24       -11.3965    2.7912   65.0185 H       1  ZINC000879023512    0.1600
     25 H25        -8.9673   -1.4148   64.1759 H       1  ZINC000879023512    0.1800
     26 H26        -9.6763   -0.1580   59.1184 H       1  ZINC000879023512    0.0700
     27 H27        -8.6112   -1.4753   59.6831 H       1  ZINC000879023512    0.0700
     28 H28        -9.6912   -1.3583   57.1215 H       1  ZINC000879023512    0.0900
     29 H29        -9.2324   -2.8918   57.9322 H       1  ZINC000879023512    0.0900
     30 H30       -11.3615   -3.4967   56.2513 H       1  ZINC000879023512    0.0800
     31 H31       -11.1037   -4.4921   57.7042 H       1  ZINC000879023512    0.0800
     32 H32       -11.1428   -3.6679   59.8573 H       1  ZINC000879023512    0.0800
     33 H33       -12.5247   -2.5327   59.9393 H       1  ZINC000879023512    0.0900
@<TRIPOS>BOND
     1     1     2    2
     2     2     3   am
     3     2    14   am
     4     3     4    1
     5     3    22    1
     6     4    13   ar
     7     4     5   ar
     8     5     6   ar
     9     5    23    1
    10     6     7   ar
    11     6    24    1
    12     7     8    1
    13     7     9   ar
    14     9    10    1
    15     9    13   ar
    16    10    11    2
    17    10    12    2
    18    13    25    1
    19    14    21    1
    20    14    15    1
    21    15    16    1
    22    15    26    1
    23    15    27    1
    24    16    17    1
    25    16    28    1
    26    16    29    1
    27    17    18    1
    28    17    19    1
    29    17    21    1
    30    19    20    1
    31    19    30    1
    32    19    31    1
    33    21    32    1
    34    21    33    1
@<TRIPOS>SUBSTRUCTURE
     1 ZINC000879023512        1 TEMP              0 ****  ****    0 ROOT


##########                                Name:    ZINC000540473851
##########                DOCK_Rotatable_Bonds:                   5
##########                         Heavy_Atoms:                  29
##########                    Molecular_Weight:             411.503
##########                DOCK_Rotatable_Bonds:                   5
##########                       Formal_Charge:           0.0200001
##########                     HBond_Acceptors:                   8
##########                        HBond_Donors:                   0
##########                         Heavy_Atoms:                  29
##########                          Grid_Score:          -26.403421
##########                     Grid_vdw_energy:          -25.993206
##########                      Grid_es_energy:           -0.410216
##########           Internal_energy_repulsive:           19.061693

@<TRIPOS>MOLECULE
ZINC000540473851
 51 54 1 0 0
SMALL
USER_CHARGES


@<TRIPOS>ATOM
      1 C1        -10.4465   -1.0051   53.3381 C.3     1  ZINC000540473851   -0.0800
      2 C2         -9.5631    0.1578   53.7097 C.2     1  ZINC000540473851    0.1500
      3 C3         -9.8774    1.0449   54.7048 C.2     1  ZINC000540473851   -0.3100
      4 C4        -11.0812    1.0132   55.5443 C.2     1  ZINC000540473851    0.6000
      5 O5        -11.9863    1.8003   55.3400 O.2     1  ZINC000540473851   -0.5100
      6 N6        -11.1838    0.1122   56.5414 N.am    1  ZINC000540473851   -0.6100
      7 C7        -10.0990   -0.8442   56.8092 C.3     1  ZINC000540473851    0.1000
      8 C8         -9.7486   -0.7778   58.2995 C.3     1  ZINC000540473851    0.0400
      9 N9        -10.9666   -0.9814   59.0952 N.3     1  ZINC000540473851   -0.5300
     10 C10       -10.6485   -1.0965   60.5247 C.3     1  ZINC000540473851    0.1200
     11 H11        -9.9419   -0.3148   60.8038 H       1  ZINC000540473851    0.0500
     12 C12       -10.0275   -2.4674   60.8002 C.3     1  ZINC000540473851   -0.1400
     13 C13       -11.9107   -0.9450   61.3340 C.ar    1  ZINC000540473851   -0.0500
     14 C14       -12.0199    0.0763   62.2589 C.ar    1  ZINC000540473851   -0.1000
     15 C15       -13.1773    0.2165   63.0022 C.ar    1  ZINC000540473851   -0.0900
     16 C16       -14.2263   -0.6644   62.8211 C.ar    1  ZINC000540473851   -0.1500
     17 C17       -14.1182   -1.6878   61.8943 C.ar    1  ZINC000540473851    0.1000
     18 F18       -15.1432   -2.5497   61.7164 F       1  ZINC000540473851   -0.1400
     19 C19       -12.9609   -1.8240   61.1469 C.ar    1  ZINC000540473851   -0.1500
     20 C20       -11.9433    0.0900   58.8579 C.3     1  ZINC000540473851    0.0400
     21 C21       -12.3811    0.0633   57.3943 C.3     1  ZINC000540473851    0.1200
     22 S22        -8.5775    2.2309   54.7965 S.3     1  ZINC000540473851    0.2800
     23 C23        -7.7539    1.4442   53.5220 C.2     1  ZINC000540473851    0.0800
     24 C24        -6.4544    1.8780   52.9631 C.ar    1  ZINC000540473851    0.3800
     25 N25        -5.8981    1.1676   51.9902 N.ar    1  ZINC000540473851   -0.5100
     26 C26        -4.7384    1.5277   51.4694 C.ar    1  ZINC000540473851    0.1600
     27 C27        -4.1029    2.6629   51.9518 C.ar    1  ZINC000540473851   -0.2100
     28 C28        -4.7123    3.3826   52.9696 C.ar    1  ZINC000540473851    0.1500
     29 N29        -5.8754    2.9712   53.4429 N.ar    1  ZINC000540473851   -0.4700
     30 N30        -8.4273    0.4059   53.1157 N.2     1  ZINC000540473851   -0.4300
     31 H31       -10.1716   -1.8754   53.9341 H       1  ZINC000540473851    0.0900
     32 H32       -11.4877   -0.7468   53.5312 H       1  ZINC000540473851    0.0800
     33 H33       -10.3193   -1.2344   52.2801 H       1  ZINC000540473851    0.0800
     34 H34       -10.4280   -1.8518   56.5549 H       1  ZINC000540473851    0.0900
     35 H35        -9.2238   -0.5809   56.2153 H       1  ZINC000540473851    0.0900
     36 H36        -9.0242   -1.5567   58.5379 H       1  ZINC000540473851    0.1000
     37 H37        -9.3226    0.1986   58.5299 H       1  ZINC000540473851    0.0400
     38 H38       -10.7340   -3.2490   60.5211 H       1  ZINC000540473851    0.0700
     39 H39        -9.1145   -2.5769   60.2148 H       1  ZINC000540473851    0.0600
     40 H40        -9.7914   -2.5528   61.8609 H       1  ZINC000540473851    0.0600
     41 H41       -11.2003    0.7652   62.4014 H       1  ZINC000540473851    0.1400
     42 H42       -13.2614    1.0147   63.7249 H       1  ZINC000540473851    0.1300
     43 H43       -15.1300   -0.5551   63.4022 H       1  ZINC000540473851    0.1300
     44 H44       -12.8756   -2.6215   60.4237 H       1  ZINC000540473851    0.1300
     45 H45       -12.8106   -0.0595   59.5010 H       1  ZINC000540473851    0.1000
     46 H46       -11.4867    1.0544   59.0804 H       1  ZINC000540473851    0.0400
     47 H47       -13.0162    0.9243   57.1863 H       1  ZINC000540473851    0.1000
     48 H48       -12.9294   -0.8569   57.1929 H       1  ZINC000540473851    0.0800
     49 H49        -4.2903    0.9452   50.6779 H       1  ZINC000540473851    0.1800
     50 H50        -3.1542    2.9793   51.5441 H       1  ZINC000540473851    0.1600
     51 H51        -4.2438    4.2707   53.3672 H       1  ZINC000540473851    0.1800
@<TRIPOS>BOND
     1     1     2    1
     2     1    31    1
     3     1    32    1
     4     1    33    1
     5     2    30    1
     6     2     3    2
     7     3     4    1
     8     3    22    1
     9     4     5    2
    10     4     6   am
    11     6    21    1
    12     6     7    1
    13     7     8    1
    14     7    34    1
    15     7    35    1
    16     8     9    1
    17     8    36    1
    18     8    37    1
    19     9    10    1
    20     9    20    1
    21    10    11    1
    22    10    12    1
    23    10    13    1
    24    12    38    1
    25    12    39    1
    26    12    40    1
    27    13    19   ar
    28    13    14   ar
    29    14    15   ar
    30    14    41    1
    31    15    16   ar
    32    15    42    1
    33    16    17   ar
    34    16    43    1
    35    17    18    1
    36    17    19   ar
    37    19    44    1
    38    20    21    1
    39    20    45    1
    40    20    46    1
    41    21    47    1
    42    21    48    1
    43    22    23    1
    44    23    24    1
    45    23    30    2
    46    24    29   ar
    47    24    25   ar
    48    25    26   ar
    49    26    27   ar
    50    26    49    1
    51    27    28   ar
    52    27    50    1
    53    28    29   ar
    54    28    51    1
@<TRIPOS>SUBSTRUCTURE
     1 ZINC000540473851        1 TEMP              0 ****  ****    0 ROOT


##########                                Name:    ZINC000458730620
##########                DOCK_Rotatable_Bonds:                   9
##########                         Heavy_Atoms:                  25
##########                    Molecular_Weight:              375.44
##########                DOCK_Rotatable_Bonds:                   9
##########                       Formal_Charge:        -1.86265e-07
##########                     HBond_Acceptors:                   9
##########                        HBond_Donors:                   3
##########                         Heavy_Atoms:                  25
##########                          Grid_Score:          -26.382765
##########                     Grid_vdw_energy:          -24.832859
##########                      Grid_es_energy:           -1.549907
##########           Internal_energy_repulsive:           31.198029

@<TRIPOS>MOLECULE
ZINC000458730620
 48 49 1 0 0
SMALL
USER_CHARGES


@<TRIPOS>ATOM
      1 C1          5.5430    1.5998   55.0183 C.3     1  ZINC000458730620   -0.1600
      2 C2          4.8753    2.9174   54.6194 C.3     1  ZINC000458730620    0.2000
      3 C3          5.7864    3.6793   53.6549 C.3     1  ZINC000458730620   -0.1600
      4 N4          3.5954    2.6374   53.9638 N.am    1  ZINC000458730620   -0.7400
      5 C5          3.5635    1.9045   52.8332 C.2     1  ZINC000458730620    0.7100
      6 O6          4.5971    1.4770   52.3564 O.2     1  ZINC000458730620   -0.5800
      7 N7          2.3859    1.6456   52.2310 N.am    1  ZINC000458730620   -0.7500
      8 C8          2.3511    0.8475   51.0029 C.3     1  ZINC000458730620    0.1300
      9 C9          1.5188    1.5752   49.9452 C.3     1  ZINC000458730620    0.1000
     10 N10         0.1004    1.5010   50.3040 N.am    1  ZINC000458730620   -1.1100
     11 S11        -1.0364    2.2221   49.3394 S.o2    1  ZINC000458730620    2.7000
     12 O12        -2.3031    1.8475   49.8634 O.2     1  ZINC000458730620   -0.9400
     13 O13        -0.6296    3.5745   49.1821 O.2     1  ZINC000458730620   -0.9400
     14 C14        -0.9170    1.4780   47.7468 C.ar    1  ZINC000458730620   -0.7300
     15 C15        -0.6636    2.2602   46.6361 C.ar    1  ZINC000458730620    0.0400
     16 C16        -0.5691    1.6777   45.3862 C.ar    1  ZINC000458730620   -0.1800
     17 C17        -0.7282    0.3096   45.2456 C.ar    1  ZINC000458730620    0.1900
     18 F18        -0.6354   -0.2596   44.0238 F       1  ZINC000458730620   -0.1200
     19 C19        -0.9821   -0.4752   46.3576 C.ar    1  ZINC000458730620   -0.2100
     20 C20        -1.0713    0.1085   47.6093 C.ar    1  ZINC000458730620    0.2200
     21 F21        -1.3189   -0.6560   48.6952 F       1  ZINC000458730620   -0.1100
     22 C22         4.6331    3.7654   55.8697 C.3     1  ZINC000458730620   -0.1100
     23 C23         3.5207    4.8131   55.6974 C.3     1  ZINC000458730620   -0.1400
     24 C24         3.0791    4.4648   57.1286 C.3     1  ZINC000458730620   -0.1400
     25 C25         3.7245    3.0865   56.9081 C.3     1  ZINC000458730620   -0.1400
     26 H26         6.5225    1.8051   55.4502 H       1  ZINC000458730620    0.0600
     27 H27         4.9226    1.0859   55.7526 H       1  ZINC000458730620    0.0500
     28 H28         5.6593    0.9699   54.1365 H       1  ZINC000458730620    0.0800
     29 H29         5.9589    3.0751   52.7643 H       1  ZINC000458730620    0.0800
     30 H30         5.3107    4.6179   53.3707 H       1  ZINC000458730620    0.0500
     31 H31         6.7387    3.8876   54.1427 H       1  ZINC000458730620    0.0600
     32 H32         2.7710    2.9794   54.3435 H       1  ZINC000458730620    0.3900
     33 H33         1.5615    1.9877   52.6106 H       1  ZINC000458730620    0.4000
     34 H34         3.3664    0.7064   50.6324 H       1  ZINC000458730620    0.0800
     35 H35         1.9027   -0.1235   51.2132 H       1  ZINC000458730620    0.0800
     36 H36         1.8269    2.6196   49.8957 H       1  ZINC000458730620    0.0900
     37 H37         1.6732    1.1045   48.9744 H       1  ZINC000458730620    0.0700
     38 H38        -0.1730    1.0295   51.1063 H       1  ZINC000458730620    0.4300
     39 H39        -0.5397    3.3275   46.7448 H       1  ZINC000458730620    0.1700
     40 H40        -0.3715    2.2900   44.5188 H       1  ZINC000458730620    0.1600
     41 H41        -1.1064   -1.5424   46.2488 H       1  ZINC000458730620    0.1600
     42 H42         5.5532    4.1691   56.2920 H       1  ZINC000458730620    0.1100
     43 H43         3.8931    5.8320   55.5911 H       1  ZINC000458730620    0.0700
     44 H44         2.7857    4.5486   54.9370 H       1  ZINC000458730620    0.0800
     45 H45         3.5738    5.0609   57.8955 H       1  ZINC000458730620    0.0800
     46 H46         1.9971    4.4251   57.2543 H       1  ZINC000458730620    0.0700
     47 H47         3.0453    2.3499   56.4788 H       1  ZINC000458730620    0.0800
     48 H48         4.2615    2.7114   57.7792 H       1  ZINC000458730620    0.0700
@<TRIPOS>BOND
     1     1     2    1
     2     1    26    1
     3     1    27    1
     4     1    28    1
     5     2     3    1
     6     2     4    1
     7     2    22    1
     8     3    29    1
     9     3    30    1
    10     3    31    1
    11     4     5   am
    12     4    32    1
    13     5     6    2
    14     5     7   am
    15     7     8    1
    16     7    33    1
    17     8     9    1
    18     8    34    1
    19     8    35    1
    20     9    10    1
    21     9    36    1
    22     9    37    1
    23    10    11   am
    24    10    38    1
    25    11    12    2
    26    11    13    2
    27    11    14    1
    28    14    20   ar
    29    14    15   ar
    30    15    16   ar
    31    15    39    1
    32    16    17   ar
    33    16    40    1
    34    17    18    1
    35    17    19   ar
    36    19    20   ar
    37    19    41    1
    38    20    21    1
    39    22    25    1
    40    22    23    1
    41    22    42    1
    42    23    24    1
    43    23    43    1
    44    23    44    1
    45    24    25    1
    46    24    45    1
    47    24    46    1
    48    25    47    1
    49    25    48    1
@<TRIPOS>SUBSTRUCTURE
     1 ZINC000458730620        1 TEMP              0 ****  ****    0 ROOT


##########                                Name:    ZINC000478980774
##########                DOCK_Rotatable_Bonds:                   4
##########                         Heavy_Atoms:                  26
##########                    Molecular_Weight:             401.818
##########                DOCK_Rotatable_Bonds:                   4
##########                       Formal_Charge:          -0.0100001
##########                     HBond_Acceptors:                   9
##########                        HBond_Donors:                   1
##########                         Heavy_Atoms:                  26
##########                          Grid_Score:          -26.365252
##########                     Grid_vdw_energy:          -23.262630
##########                      Grid_es_energy:           -3.102622
##########           Internal_energy_repulsive:           13.815465

@<TRIPOS>MOLECULE
ZINC000478980774
 40 42 1 0 0
SMALL
USER_CHARGES


@<TRIPOS>ATOM
      1 C1        -10.2245   -2.2907   61.5116 C.3     1  ZINC000478980774   -0.1400
      2 C2         -9.7645   -0.9128   61.0317 C.3     1  ZINC000478980774   -0.4600
      3 H3         -8.6913   -0.9337   60.8416 H       1  ZINC000478980774    0.1500
      4 C4        -10.4925   -0.5542   59.7618 C.2     1  ZINC000478980774    0.5400
      5 O5        -11.4722    0.1596   59.8053 O.2     1  ZINC000478980774   -0.5000
      6 N6        -10.0551   -1.0268   58.5778 N.am    1  ZINC000478980774   -0.6600
      7 C7        -10.7318   -0.6935   57.3974 C.ar    1  ZINC000478980774    0.1600
      8 C8        -12.0950   -0.9312   57.2880 C.ar    1  ZINC000478980774   -0.1200
      9 C9        -12.7640   -0.6033   56.1237 C.ar    1  ZINC000478980774   -0.0600
     10 C10       -12.0765   -0.0370   55.0630 C.ar    1  ZINC000478980774    0.0100
     11 O11       -12.4951    0.3698   53.8281 O.3     1  ZINC000478980774   -0.2900
     12 C12       -11.4544    1.2341   53.3351 C.3     1  ZINC000478980774    0.5700
     13 F13       -11.3224    1.1032   51.9484 F       1  ZINC000478980774   -0.1100
     14 F14       -11.7165    2.5646   53.6790 F       1  ZINC000478980774   -0.1500
     15 O15       -10.2704    0.7597   54.0029 O.3     1  ZINC000478980774   -0.2800
     16 C16       -10.7082    0.2030   55.1700 C.ar    1  ZINC000478980774    0.0500
     17 C17       -10.0401   -0.1203   56.3386 C.ar    1  ZINC000478980774   -0.0900
     18 S18       -10.1287    0.3245   62.3073 S.o     1  ZINC000478980774    1.3000
     19 O19       -11.5309    0.3745   62.5320 O.2     1  ZINC000478980774   -0.7800
     20 C20        -9.3046   -0.3493   63.7762 C.3     1  ZINC000478980774   -0.4300
     21 C21        -9.5182    0.5806   64.9428 C.ar    1  ZINC000478980774   -0.0600
     22 C22        -9.9925    1.8607   64.7284 C.ar    1  ZINC000478980774   -0.1100
     23 C23       -10.1885    2.7140   65.7985 C.ar    1  ZINC000478980774   -0.1100
     24 C24        -9.9096    2.2874   67.0834 C.ar    1  ZINC000478980774   -0.1100
     25 C25        -9.4351    1.0070   67.2991 C.ar    1  ZINC000478980774   -0.1100
     26 C26        -9.2447    0.1509   66.2294 C.ar    1  ZINC000478980774   -0.0300
     27 Cl27       -8.6488   -1.4572   66.4995 Cl      1  ZINC000478980774   -0.0600
     28 H28        -9.6979   -2.5500   62.4300 H       1  ZINC000478980774    0.0800
     29 H29       -11.2975   -2.2697   61.7015 H       1  ZINC000478980774    0.0700
     30 H30       -10.0057   -3.0341   60.7451 H       1  ZINC000478980774    0.0700
     31 H31        -9.2718   -1.5978   58.5431 H       1  ZINC000478980774    0.4200
     32 H32       -12.6334   -1.3730   58.1134 H       1  ZINC000478980774    0.1500
     33 H33       -13.8245   -0.7894   56.0409 H       1  ZINC000478980774    0.1500
     34 H34        -8.9805    0.0694   56.4253 H       1  ZINC000478980774    0.1600
     35 H35        -9.7228   -1.3282   64.0106 H       1  ZINC000478980774    0.1100
     36 H36        -8.2369   -0.4476   63.5807 H       1  ZINC000478980774    0.1300
     37 H37       -10.2099    2.1949   63.7247 H       1  ZINC000478980774    0.1400
     38 H38       -10.5592    3.7144   65.6305 H       1  ZINC000478980774    0.1300
     39 H39       -10.0622    2.9545   67.9188 H       1  ZINC000478980774    0.1300
     40 H40        -9.2173    0.6738   68.3030 H       1  ZINC000478980774    0.1300
@<TRIPOS>BOND
     1     1     2    1
     2     1    28    1
     3     1    29    1
     4     1    30    1
     5     2     3    1
     6     2     4    1
     7     2    18    1
     8     4     5    2
     9     4     6   am
    10     6     7    1
    11     6    31    1
    12     7    17   ar
    13     7     8   ar
    14     8     9   ar
    15     8    32    1
    16     9    10   ar
    17     9    33    1
    18    10    16   ar
    19    10    11    1
    20    11    12    1
    21    12    13    1
    22    12    14    1
    23    12    15    1
    24    15    16    1
    25    16    17   ar
    26    17    34    1
    27    18    19    2
    28    18    20    1
    29    20    21    1
    30    20    35    1
    31    20    36    1
    32    21    26   ar
    33    21    22   ar
    34    22    23   ar
    35    22    37    1
    36    23    24   ar
    37    23    38    1
    38    24    25   ar
    39    24    39    1
    40    25    26   ar
    41    25    40    1
    42    26    27    1
@<TRIPOS>SUBSTRUCTURE
     1 ZINC000478980774        1 TEMP              0 ****  ****    0 ROOT


##########                                Name:    ZINC001002468398
##########                DOCK_Rotatable_Bonds:                   7
##########                         Heavy_Atoms:                  24
##########                    Molecular_Weight:             341.358
##########                DOCK_Rotatable_Bonds:                   7
##########                       Formal_Charge:           0.0100001
##########                     HBond_Acceptors:                   8
##########                        HBond_Donors:                   0
##########                         Heavy_Atoms:                  24
##########                          Grid_Score:          -26.355936
##########                     Grid_vdw_energy:          -22.509254
##########                      Grid_es_energy:           -3.846681
##########           Internal_energy_repulsive:           16.908968

@<TRIPOS>MOLECULE
ZINC001002468398
 45 47 1 0 0
SMALL
USER_CHARGES


@<TRIPOS>ATOM
      1 C1        -17.4902    0.4192   60.5426 C.3     1  ZINC001002468398   -0.1400
      2 C2        -16.2167    0.7760   61.3120 C.3     1  ZINC001002468398   -0.0500
      3 C3        -15.7769   -0.4090   62.1325 C.2     1  ZINC001002468398    0.0500
      4 C4        -15.1345   -0.3702   63.3316 C.2     1  ZINC001002468398   -0.0800
      5 C5        -14.7373    0.8400   64.0737 C.2     1  ZINC001002468398    0.6000
      6 O6        -15.4934    1.3265   64.8927 O.2     1  ZINC001002468398   -0.5300
      7 N7        -13.5364    1.4073   63.8447 N.am    1  ZINC001002468398   -0.6000
      8 C8        -13.1419    2.6099   64.5824 C.3     1  ZINC001002468398    0.0900
      9 C9        -12.6256    0.8213   62.8582 C.3     1  ZINC001002468398    0.1000
     10 C10       -11.7366   -0.2204   63.5405 C.3     1  ZINC001002468398    0.1300
     11 H11       -12.3538   -0.9337   64.0867 H       1  ZINC001002468398    0.0800
     12 C12       -10.7589    0.4776   64.5093 C.3     1  ZINC001002468398   -0.1300
     13 C13        -9.4498   -0.3351   64.3272 C.3     1  ZINC001002468398   -0.1300
     14 C14        -9.5016   -0.6738   62.8165 C.3     1  ZINC001002468398    0.1000
     15 N15       -10.9297   -0.9256   62.5339 N.am    1  ZINC001002468398   -0.6100
     16 C16       -11.4100   -1.6745   61.5215 C.2     1  ZINC001002468398    0.5600
     17 O17       -12.6071   -1.8130   61.3845 O.2     1  ZINC001002468398   -0.5100
     18 C18       -10.4595   -2.3398   60.5596 C.3     1  ZINC001002468398   -0.2000
     19 H19       -10.0050   -3.2654   60.9125 H       1  ZINC001002468398    0.1500
     20 C20        -9.6132   -1.4342   59.6627 C.3     1  ZINC001002468398   -0.1500
     21 C21       -10.7753   -2.2323   59.0664 C.3     1  ZINC001002468398    0.2300
     22 F22       -10.4581   -3.3294   58.2584 F       1  ZINC001002468398   -0.1500
     23 F23       -11.9241   -1.5236   58.6984 F       1  ZINC001002468398   -0.1400
     24 N24       -14.9284   -1.6589   63.7170 N.2     1  ZINC001002468398   -0.4600
     25 C25       -15.4171   -2.4446   62.8048 C.2     1  ZINC001002468398    0.1700
     26 O26       -15.9493   -1.7038   61.8225 O.3     1  ZINC001002468398   -0.2000
     27 H27       -17.2915   -0.4257   59.8831 H       1  ZINC001002468398    0.0600
     28 H28       -18.2778    0.1527   61.2473 H       1  ZINC001002468398    0.0600
     29 H29       -17.8083    1.2763   59.9490 H       1  ZINC001002468398    0.0700
     30 H30       -15.4291    1.0425   60.6073 H       1  ZINC001002468398    0.1200
     31 H31       -16.4154    1.6209   61.9714 H       1  ZINC001002468398    0.0900
     32 H32       -13.0757    2.3787   65.6456 H       1  ZINC001002468398    0.0700
     33 H33       -12.1715    2.9538   64.2243 H       1  ZINC001002468398    0.0700
     34 H34       -13.8848    3.3921   64.4262 H       1  ZINC001002468398    0.0700
     35 H35       -13.2046    0.3433   62.0680 H       1  ZINC001002468398    0.0900
     36 H36       -12.0023    1.6054   62.4284 H       1  ZINC001002468398    0.0900
     37 H37       -10.6095    1.5186   64.2229 H       1  ZINC001002468398    0.1000
     38 H38       -11.1172    0.4066   65.5363 H       1  ZINC001002468398    0.0800
     39 H39        -8.5764    0.2735   64.5614 H       1  ZINC001002468398    0.0900
     40 H40        -9.4656   -1.2420   64.9317 H       1  ZINC001002468398    0.0800
     41 H41        -9.1395    0.1680   62.2263 H       1  ZINC001002468398    0.0800
     42 H42        -8.9119   -1.5664   62.6074 H       1  ZINC001002468398    0.0800
     43 H43        -9.7438   -0.3572   59.7684 H       1  ZINC001002468398    0.1300
     44 H44        -8.6019   -1.7642   59.4252 H       1  ZINC001002468398    0.1400
     45 H45       -15.4009   -3.5241   62.8354 H       1  ZINC001002468398    0.2600
@<TRIPOS>BOND
     1     1     2    1
     2     1    27    1
     3     1    28    1
     4     1    29    1
     5     2     3    1
     6     2    30    1
     7     2    31    1
     8     3    26    1
     9     3     4    2
    10     4     5    1
    11     4    24    1
    12     5     6    2
    13     5     7   am
    14     7     8    1
    15     7     9    1
    16     8    32    1
    17     8    33    1
    18     8    34    1
    19     9    10    1
    20     9    35    1
    21     9    36    1
    22    10    11    1
    23    10    15    1
    24    10    12    1
    25    12    13    1
    26    12    37    1
    27    12    38    1
    28    13    14    1
    29    13    39    1
    30    13    40    1
    31    14    15    1
    32    14    41    1
    33    14    42    1
    34    15    16   am
    35    16    17    2
    36    16    18    1
    37    18    19    1
    38    18    21    1
    39    18    20    1
    40    20    21    1
    41    20    43    1
    42    20    44    1
    43    21    22    1
    44    21    23    1
    45    24    25    2
    46    25    26    1
    47    25    45    1
@<TRIPOS>SUBSTRUCTURE
     1 ZINC001002468398        1 TEMP              0 ****  ****    0 ROOT


##########                                Name:    ZINC000057429281
##########                DOCK_Rotatable_Bonds:                  10
##########                         Heavy_Atoms:                  23
##########                    Molecular_Weight:             331.295
##########                DOCK_Rotatable_Bonds:                  10
##########                       Formal_Charge:          -0.0100002
##########                     HBond_Acceptors:                   9
##########                        HBond_Donors:                   5
##########                         Heavy_Atoms:                  23
##########                          Grid_Score:          -26.354177
##########                     Grid_vdw_energy:          -22.607340
##########                      Grid_es_energy:           -3.746838
##########           Internal_energy_repulsive:            9.500307

@<TRIPOS>MOLECULE
ZINC000057429281
 39 39 1 0 0
SMALL
USER_CHARGES


@<TRIPOS>ATOM
      1 C1         -1.9522    3.8988   50.0817 C.3     1  ZINC000057429281   -0.1500
      2 C2         -0.6546    3.1035   49.9253 C.3     1  ZINC000057429281   -0.0400
      3 H3         -0.5592    2.3979   50.7506 H       1  ZINC000057429281    0.0900
      4 C4          0.5365    4.0636   49.9349 C.3     1  ZINC000057429281   -0.1300
      5 C5          1.8192    3.2727   49.9542 C.2     1  ZINC000057429281    0.5200
      6 O6          2.5254    3.2386   48.9689 O.2     1  ZINC000057429281   -0.5300
      7 N7          2.1814    2.6033   51.0665 N.am    1  ZINC000057429281   -0.7000
      8 C8          3.4274    1.8330   51.0847 C.3     1  ZINC000057429281    0.1100
      9 C9          4.5799    2.7495   51.4057 C.2     1  ZINC000057429281    0.5200
     10 N10         4.3683    3.8744   52.1171 N.am    1  ZINC000057429281   -0.8500
     11 O11         5.6976    2.4747   51.0238 O.2     1  ZINC000057429281   -0.5100
     12 C12         3.3360    0.7545   52.1334 C.2     1  ZINC000057429281    0.5300
     13 N13         2.7474   -0.4220   51.8406 N.am    1  ZINC000057429281   -0.8400
     14 O14         3.7920    0.9454   53.2408 O.2     1  ZINC000057429281   -0.5100
     15 C15        -0.6817    2.3496   48.6207 C.ar    1  ZINC000057429281   -0.0500
     16 C16        -0.7954    3.0376   47.4271 C.ar    1  ZINC000057429281   -0.1200
     17 C17        -0.8202    2.3461   46.2304 C.ar    1  ZINC000057429281   -0.0700
     18 C18        -0.7308    0.9667   46.2272 C.ar    1  ZINC000057429281   -0.1900
     19 C19        -0.7582    0.2128   44.9226 C.3     1  ZINC000057429281    0.5100
     20 F20        -1.6918    0.8017   44.0631 F       1  ZINC000057429281   -0.1800
     21 F21         0.5098    0.2546   44.3331 F       1  ZINC000057429281   -0.1800
     22 F22        -1.1181   -1.1181   45.1607 F       1  ZINC000057429281   -0.1800
     23 C23        -0.6157    0.2788   47.4207 C.ar    1  ZINC000057429281   -0.0700
     24 C24        -0.5870    0.9705   48.6172 C.ar    1  ZINC000057429281   -0.1100
     25 H25        -2.8008    3.2148   50.0749 H       1  ZINC000057429281    0.0600
     26 H26        -1.9326    4.4441   51.0253 H       1  ZINC000057429281    0.0800
     27 H27        -2.0476    4.6044   49.2563 H       1  ZINC000057429281    0.0500
     28 H28         0.5077    4.6873   49.0415 H       1  ZINC000057429281    0.1000
     29 H29         0.4863    4.6960   50.8212 H       1  ZINC000057429281    0.1000
     30 H30         1.6170    2.6315   51.8550 H       1  ZINC000057429281    0.4200
     31 H31         3.5870    1.3771   50.1077 H       1  ZINC000057429281    0.1300
     32 H32         5.1100    4.4643   52.3238 H       1  ZINC000057429281    0.4000
     33 H33         3.4742    4.0942   52.4224 H       1  ZINC000057429281    0.4100
     34 H34         2.6885   -1.1162   52.5156 H       1  ZINC000057429281    0.4000
     35 H35         2.3827   -0.5746   50.9548 H       1  ZINC000057429281    0.4100
     36 H36        -0.8653    4.1154   47.4296 H       1  ZINC000057429281    0.1400
     37 H37        -0.9098    2.8836   45.2979 H       1  ZINC000057429281    0.1400
     38 H38        -0.5454   -0.7990   47.4182 H       1  ZINC000057429281    0.1400
     39 H39        -0.4970    0.4331   49.5496 H       1  ZINC000057429281    0.1400
@<TRIPOS>BOND
     1     1     2    1
     2     1    25    1
     3     1    26    1
     4     1    27    1
     5     2     3    1
     6     2     4    1
     7     2    15    1
     8     4     5    1
     9     4    28    1
    10     4    29    1
    11     5     6    2
    12     5     7   am
    13     7     8    1
    14     7    30    1
    15     8     9    1
    16     8    12    1
    17     8    31    1
    18     9    10   am
    19     9    11    2
    20    10    32    1
    21    10    33    1
    22    12    13   am
    23    12    14    2
    24    13    34    1
    25    13    35    1
    26    15    24   ar
    27    15    16   ar
    28    16    17   ar
    29    16    36    1
    30    17    18   ar
    31    17    37    1
    32    18    19    1
    33    18    23   ar
    34    19    20    1
    35    19    21    1
    36    19    22    1
    37    23    24   ar
    38    23    38    1
    39    24    39    1
@<TRIPOS>SUBSTRUCTURE
     1 ZINC000057429281        1 TEMP              0 ****  ****    0 ROOT


##########                                Name:    ZINC000888733009
##########                DOCK_Rotatable_Bonds:                   6
##########                         Heavy_Atoms:                  25
##########                    Molecular_Weight:             360.434
##########                DOCK_Rotatable_Bonds:                   6
##########                       Formal_Charge:        -1.02073e-06
##########                     HBond_Acceptors:                   7
##########                        HBond_Donors:                   2
##########                         Heavy_Atoms:                  25
##########                          Grid_Score:          -26.350639
##########                     Grid_vdw_energy:          -25.120432
##########                      Grid_es_energy:           -1.230206
##########           Internal_energy_repulsive:           47.954136

@<TRIPOS>MOLECULE
ZINC000888733009
 45 48 1 0 0
SMALL
USER_CHARGES


@<TRIPOS>ATOM
      1 C1        -12.9770   -2.1902   55.8856 C.3     1  ZINC000888733009   -0.1500
      2 C2        -12.2373   -3.0078   56.9465 C.3     1  ZINC000888733009    0.0700
      3 H3        -12.6840   -3.9976   57.0410 H       1  ZINC000888733009    0.0700
      4 C4        -12.2642   -2.2728   58.3081 C.3     1  ZINC000888733009   -0.1300
      5 C5        -10.8799   -2.5634   58.9033 C.3     1  ZINC000888733009   -0.1100
      6 C6        -10.1052   -1.3491   59.4090 C.3     1  ZINC000888733009   -0.1300
      7 C7         -9.6063   -2.2534   60.5511 C.3     1  ZINC000888733009    0.1200
      8 N8         -9.5708   -1.5854   61.8545 N.am    1  ZINC000888733009   -0.7100
      9 C9        -10.6407   -0.8867   62.2831 C.2     1  ZINC000888733009    0.5900
     10 O10       -11.6370   -0.8120   61.5878 O.2     1  ZINC000888733009   -0.5600
     11 C11       -10.6045   -0.2169   63.5864 C.2     1  ZINC000888733009   -0.2400
     12 C12       -11.7210    0.2519   64.2299 C.2     1  ZINC000888733009    0.0800
     13 N13       -13.0124    0.1546   63.7388 N.am    1  ZINC000888733009   -0.6100
     14 C14       -14.0358    0.7074   64.4197 C.2     1  ZINC000888733009    0.6000
     15 O15       -13.8249    1.2934   65.4654 O.2     1  ZINC000888733009   -0.4900
     16 C16       -15.4028    0.6029   63.9009 C.2     1  ZINC000888733009   -0.0900
     17 C17       -15.7873   -0.0837   62.7846 C.2     1  ZINC000888733009   -0.1000
     18 C18       -17.1754    0.0860   62.6648 C.2     1  ZINC000888733009   -0.2300
     19 C19       -17.5725    0.8588   63.6998 C.2     1  ZINC000888733009    0.0100
     20 O20       -16.5025    1.1635   64.4456 O.3     1  ZINC000888733009   -0.1600
     21 S21       -11.3013    0.9704   65.7175 S.3     1  ZINC000888733009    0.3000
     22 C22        -9.5937    0.6414   65.4835 C.2     1  ZINC000888733009   -0.2800
     23 C23        -9.3880    0.0147   64.3340 C.2     1  ZINC000888733009   -0.0900
     24 C24       -10.8695   -3.1059   60.3301 C.3     1  ZINC000888733009   -0.1400
     25 C25       -10.1635   -3.4245   57.8546 C.3     1  ZINC000888733009    0.0700
     26 O26       -10.8363   -3.1183   56.6097 O.3     1  ZINC000888733009   -0.3700
     27 H27       -12.9261   -2.7074   54.9275 H       1  ZINC000888733009    0.0600
     28 H28       -14.0198   -2.0720   56.1798 H       1  ZINC000888733009    0.0700
     29 H29       -12.5119   -1.2087   55.7938 H       1  ZINC000888733009    0.0600
     30 H30       -12.4018   -1.2013   58.1628 H       1  ZINC000888733009    0.0800
     31 H31       -13.0490   -2.6780   58.9470 H       1  ZINC000888733009    0.0800
     32 H32        -9.3151   -1.0216   58.7332 H       1  ZINC000888733009    0.0800
     33 H33       -10.7433   -0.5317   59.7447 H       1  ZINC000888733009    0.0900
     34 H34        -8.6791   -2.7773   60.3191 H       1  ZINC000888733009    0.1200
     35 H35        -8.7773   -1.6460   62.4090 H       1  ZINC000888733009    0.4000
     36 H36       -13.1802   -0.3114   62.9048 H       1  ZINC000888733009    0.4400
     37 H37       -15.1473   -0.6477   62.1223 H       1  ZINC000888733009    0.1700
     38 H38       -17.8074   -0.3239   61.8907 H       1  ZINC000888733009    0.1600
     39 H39       -18.5864    1.1750   63.8959 H       1  ZINC000888733009    0.2200
     40 H40        -8.8161    0.9095   66.1834 H       1  ZINC000888733009    0.1700
     41 H41        -8.4103   -0.2853   63.9868 H       1  ZINC000888733009    0.1500
     42 H42       -11.7238   -2.7853   60.9264 H       1  ZINC000888733009    0.0900
     43 H43       -10.6889   -4.1793   60.3889 H       1  ZINC000888733009    0.0800
     44 H44        -9.1096   -3.1528   57.7949 H       1  ZINC000888733009    0.0900
     45 H45       -10.2715   -4.4826   58.0931 H       1  ZINC000888733009    0.0700
@<TRIPOS>BOND
     1     1     2    1
     2     1    27    1
     3     1    28    1
     4     1    29    1
     5     2     3    1
     6     2    26    1
     7     2     4    1
     8     4     5    1
     9     4    30    1
    10     4    31    1
    11     5    24    1
    12     5     6    1
    13     5    25    1
    14     6     7    1
    15     6    32    1
    16     6    33    1
    17     7     8    1
    18     7    24    1
    19     7    34    1
    20     8     9   am
    21     8    35    1
    22     9    10    2
    23     9    11    1
    24    11    23    1
    25    11    12    2
    26    12    13    1
    27    12    21    1
    28    13    14   am
    29    13    36    1
    30    14    15    2
    31    14    16    1
    32    16    20    1
    33    16    17    2
    34    17    18    1
    35    17    37    1
    36    18    19    2
    37    18    38    1
    38    19    20    1
    39    19    39    1
    40    21    22    1
    41    22    23    2
    42    22    40    1
    43    23    41    1
    44    24    42    1
    45    24    43    1
    46    25    26    1
    47    25    44    1
    48    25    45    1
@<TRIPOS>SUBSTRUCTURE
     1 ZINC000888733009        1 TEMP              0 ****  ****    0 ROOT


##########                                Name:    ZINC001176298561
##########                DOCK_Rotatable_Bonds:                   6
##########                         Heavy_Atoms:                  23
##########                    Molecular_Weight:             337.781
##########                DOCK_Rotatable_Bonds:                   6
##########                       Formal_Charge:          -0.0100003
##########                     HBond_Acceptors:                   7
##########                        HBond_Donors:                   2
##########                         Heavy_Atoms:                  23
##########                          Grid_Score:          -26.342253
##########                     Grid_vdw_energy:          -24.272806
##########                      Grid_es_energy:           -2.069447
##########           Internal_energy_repulsive:           14.856277

@<TRIPOS>MOLECULE
ZINC001176298561
 40 41 1 0 0
SMALL
USER_CHARGES


@<TRIPOS>ATOM
      1 C1        -17.5097   -3.7874   54.2274 C.3     1  ZINC001176298561   -0.1700
      2 C2        -16.2792   -3.6477   55.1259 C.3     1  ZINC001176298561    0.1100
      3 N3        -15.6534   -4.9603   55.3042 N.am    1  ZINC001176298561   -0.6100
      4 C4        -15.8801   -6.0200   54.3184 C.3     1  ZINC001176298561    0.0900
      5 C5        -15.0083   -5.7661   53.0870 C.3     1  ZINC001176298561   -0.1800
      6 C6        -14.8689   -5.1928   56.3751 C.2     1  ZINC001176298561    0.5600
      7 O7        -14.3496   -6.2818   56.5231 O.2     1  ZINC001176298561   -0.5300
      8 C8        -14.6398   -4.1231   57.3701 C.ar    1  ZINC001176298561   -0.0600
      9 C9        -15.5288   -3.9537   58.4325 C.ar    1  ZINC001176298561   -0.1900
     10 C10       -15.3125   -2.9526   59.3616 C.ar    1  ZINC001176298561    0.1400
     11 F11       -16.1738   -2.7901   60.3897 F       1  ZINC001176298561   -0.1300
     12 C12       -14.2156   -2.1171   59.2415 C.ar    1  ZINC001176298561   -0.1800
     13 C13       -13.3254   -2.2795   58.1862 C.ar    1  ZINC001176298561    0.2400
     14 N14       -12.2196   -1.4342   58.0692 N.pl3   1  ZINC001176298561   -0.6700
     15 C15       -11.1271   -1.5874   58.9313 C.2     1  ZINC001176298561    0.0400
     16 C16       -11.1476   -1.0295   60.1804 C.2     1  ZINC001176298561   -0.0300
     17 C17       -10.0399   -1.1986   61.0247 C.2     1  ZINC001176298561   -0.1300
     18 Cl18      -10.0452   -0.4991   62.6135 Cl      1  ZINC001176298561   -0.0400
     19 C19        -8.9674   -1.9069   60.6010 C.2     1  ZINC001176298561    0.1400
     20 N20        -8.9457   -2.4623   59.3588 N.am    1  ZINC001176298561   -0.6000
     21 C21        -9.9934   -2.3244   58.5240 C.2     1  ZINC001176298561    0.5100
     22 O22        -9.9595   -2.8286   57.4128 O.2     1  ZINC001176298561   -0.5200
     23 C23       -13.5316   -3.2845   57.2529 C.ar    1  ZINC001176298561   -0.1300
     24 H24       -17.9753   -2.8108   54.0946 H       1  ZINC001176298561    0.0700
     25 H25       -17.2081   -4.1810   53.2568 H       1  ZINC001176298561    0.0600
     26 H26       -18.2223   -4.4698   54.6907 H       1  ZINC001176298561    0.0600
     27 H27       -15.5666   -2.9654   54.6625 H       1  ZINC001176298561    0.0800
     28 H28       -16.5808   -3.2541   56.0965 H       1  ZINC001176298561    0.0900
     29 H29       -15.6201   -6.9842   54.7552 H       1  ZINC001176298561    0.0900
     30 H30       -16.9301   -6.0251   54.0255 H       1  ZINC001176298561    0.0800
     31 H31       -14.0279   -5.4097   53.4031 H       1  ZINC001176298561    0.0700
     32 H32       -14.8941   -6.6933   52.5253 H       1  ZINC001176298561    0.0700
     33 H33       -15.4818   -5.0147   52.4552 H       1  ZINC001176298561    0.0600
     34 H34       -16.3858   -4.6038   58.5287 H       1  ZINC001176298561    0.1500
     35 H35       -14.0512   -1.3365   59.9695 H       1  ZINC001176298561    0.1300
     36 H36       -12.2086   -0.7410   57.3908 H       1  ZINC001176298561    0.4200
     37 H37       -12.0064   -0.4653   60.5127 H       1  ZINC001176298561    0.1500
     38 H38        -8.1185   -2.0327   61.2566 H       1  ZINC001176298561    0.1800
     39 H39        -8.1679   -2.9664   59.0728 H       1  ZINC001176298561    0.4300
     40 H40       -12.8407   -3.4117   56.4326 H       1  ZINC001176298561    0.1400
@<TRIPOS>BOND
     1     1     2    1
     2     1    24    1
     3     1    25    1
     4     1    26    1
     5     2     3    1
     6     2    27    1
     7     2    28    1
     8     3     4    1
     9     3     6   am
    10     4     5    1
    11     4    29    1
    12     4    30    1
    13     5    31    1
    14     5    32    1
    15     5    33    1
    16     6     7    2
    17     6     8    1
    18     8    23   ar
    19     8     9   ar
    20     9    10   ar
    21     9    34    1
    22    10    11    1
    23    10    12   ar
    24    12    13   ar
    25    12    35    1
    26    13    14    1
    27    13    23   ar
    28    14    15    1
    29    14    36    1
    30    15    21    1
    31    15    16    2
    32    16    17    1
    33    16    37    1
    34    17    18    1
    35    17    19    2
    36    19    20    1
    37    19    38    1
    38    20    21   am
    39    20    39    1
    40    21    22    2
    41    23    40    1
@<TRIPOS>SUBSTRUCTURE
     1 ZINC001176298561        1 TEMP              0 ****  ****    0 ROOT


##########                                Name:    ZINC000931749147
##########                DOCK_Rotatable_Bonds:                   5
##########                         Heavy_Atoms:                  25
##########                    Molecular_Weight:             354.397
##########                DOCK_Rotatable_Bonds:                   5
##########                       Formal_Charge:        -4.76837e-07
##########                     HBond_Acceptors:                   7
##########                        HBond_Donors:                   1
##########                         Heavy_Atoms:                  25
##########                          Grid_Score:          -26.328264
##########                     Grid_vdw_energy:          -24.749096
##########                      Grid_es_energy:           -1.579168
##########           Internal_energy_repulsive:           82.891548

@<TRIPOS>MOLECULE
ZINC000931749147
 49 51 1 0 0
SMALL
USER_CHARGES


@<TRIPOS>ATOM
      1 C1         -0.3541    3.4159   51.4896 C.3     1  ZINC000931749147   -0.1100
      2 C2          0.9353    2.7289   51.8591 C.ar    1  ZINC000931749147   -0.1300
      3 C3          1.3860    1.6491   51.1123 C.ar    1  ZINC000931749147    0.1800
      4 N4          0.6430    1.1972   50.0145 N.am    1  ZINC000931749147   -0.6800
      5 C5          0.9134    1.6643   48.7796 C.2     1  ZINC000931749147    0.7100
      6 O6          1.8025    2.4780   48.6185 O.2     1  ZINC000931749147   -0.5500
      7 N7          0.1985    1.2294   47.7231 N.am    1  ZINC000931749147   -0.6200
      8 C8         -0.8820    0.2451   47.8932 C.3     1  ZINC000931749147    0.0700
      9 C9         -0.6661   -0.8890   46.8846 C.3     1  ZINC000931749147    0.0500
     10 O10        -0.5140   -0.3328   45.5764 O.3     1  ZINC000931749147   -0.3700
     11 C11         0.6248    0.5192   45.4314 C.3     1  ZINC000931749147    0.0500
     12 C12         0.4713    1.7295   46.3663 C.3     1  ZINC000931749147    0.1300
     13 H13        -0.3551    2.3536   46.0262 H       1  ZINC000931749147    0.0900
     14 C14         1.7656    2.5454   46.3698 C.3     1  ZINC000931749147   -0.1100
     15 C15         2.1637    2.8765   44.9300 C.3     1  ZINC000931749147   -0.1000
     16 C16         1.0542    3.6994   44.2680 C.3     1  ZINC000931749147   -0.1500
     17 C17         1.4948    4.0926   42.8556 C.3     1  ZINC000931749147    0.0600
     18 O18         2.7208    4.8234   42.9266 O.3     1  ZINC000931749147   -0.3800
     19 C19         3.8067    4.0876   43.4936 C.3     1  ZINC000931749147    0.0600
     20 C20         3.4590    3.6942   44.9317 C.3     1  ZINC000931749147   -0.1500
     21 C21         2.5744    1.0178   51.4547 C.ar    1  ZINC000931749147   -0.1200
     22 C22         3.3068    1.4643   52.5373 C.ar    1  ZINC000931749147   -0.1100
     23 C23         2.8574    2.5412   53.2821 C.ar    1  ZINC000931749147    0.0500
     24 F24         3.5755    2.9763   54.3405 F       1  ZINC000931749147   -0.1300
     25 C25         1.6740    3.1775   52.9393 C.ar    1  ZINC000931749147    0.0900
     26 F26         1.2367    4.2283   53.6670 F       1  ZINC000931749147   -0.1200
     27 H27        -0.1481    4.2193   50.7824 H       1  ZINC000931749147    0.0800
     28 H28        -1.0321    2.6948   51.0331 H       1  ZINC000931749147    0.0700
     29 H29        -0.8148    3.8304   52.3863 H       1  ZINC000931749147    0.0800
     30 H30        -0.0663    0.5481   50.1429 H       1  ZINC000931749147    0.4100
     31 H31        -0.8576   -0.1553   48.9066 H       1  ZINC000931749147    0.0800
     32 H32        -1.8450    0.7216   47.7092 H       1  ZINC000931749147    0.0900
     33 H33         0.2323   -1.4461   47.1500 H       1  ZINC000931749147    0.0600
     34 H34        -1.5271   -1.5572   46.8983 H       1  ZINC000931749147    0.1100
     35 H35         1.5279   -0.0329   45.6915 H       1  ZINC000931749147    0.0600
     36 H36         0.6925    0.8640   44.3996 H       1  ZINC000931749147    0.1100
     37 H37         1.6107    3.4700   46.9258 H       1  ZINC000931749147    0.1100
     38 H38         2.5590    1.9661   46.8420 H       1  ZINC000931749147    0.0700
     39 H39         2.3164    1.9525   44.3723 H       1  ZINC000931749147    0.0700
     40 H40         0.1428    3.1042   44.2127 H       1  ZINC000931749147    0.0700
     41 H41         0.8680    4.5987   44.8551 H       1  ZINC000931749147    0.0700
     42 H42         1.6418    3.1935   42.2571 H       1  ZINC000931749147    0.0500
     43 H43         0.7271    4.7145   42.3952 H       1  ZINC000931749147    0.0900
     44 H44         3.9839    3.1885   42.9035 H       1  ZINC000931749147    0.0500
     45 H45         4.7044    4.7059   43.4929 H       1  ZINC000931749147    0.0900
     46 H46         3.3213    4.5934   45.5322 H       1  ZINC000931749147    0.0700
     47 H47         4.2673    3.0952   45.3511 H       1  ZINC000931749147    0.0700
     48 H48         2.9259    0.1772   50.8747 H       1  ZINC000931749147    0.1800
     49 H49         4.2309    0.9727   52.8033 H       1  ZINC000931749147    0.1500
@<TRIPOS>BOND
     1     1     2    1
     2     1    27    1
     3     1    28    1
     4     1    29    1
     5     2    25   ar
     6     2     3   ar
     7     3     4    1
     8     3    21   ar
     9     4     5   am
    10     4    30    1
    11     5     6    2
    12     5     7   am
    13     7    12    1
    14     7     8    1
    15     8     9    1
    16     8    31    1
    17     8    32    1
    18     9    10    1
    19     9    33    1
    20     9    34    1
    21    10    11    1
    22    11    12    1
    23    11    35    1
    24    11    36    1
    25    12    13    1
    26    12    14    1
    27    14    15    1
    28    14    37    1
    29    14    38    1
    30    15    20    1
    31    15    16    1
    32    15    39    1
    33    16    17    1
    34    16    40    1
    35    16    41    1
    36    17    18    1
    37    17    42    1
    38    17    43    1
    39    18    19    1
    40    19    20    1
    41    19    44    1
    42    19    45    1
    43    20    46    1
    44    20    47    1
    45    21    22   ar
    46    21    48    1
    47    22    23   ar
    48    22    49    1
    49    23    24    1
    50    23    25   ar
    51    25    26    1
@<TRIPOS>SUBSTRUCTURE
     1 ZINC000931749147        1 TEMP              0 ****  ****    0 ROOT


##########                                Name:    ZINC000089894387
##########                DOCK_Rotatable_Bonds:                   8
##########                         Heavy_Atoms:                  22
##########                    Molecular_Weight:             326.823
##########                DOCK_Rotatable_Bonds:                   8
##########                       Formal_Charge:          -0.0300003
##########                     HBond_Acceptors:                   6
##########                        HBond_Donors:                   2
##########                         Heavy_Atoms:                  22
##########                          Grid_Score:          -26.293467
##########                     Grid_vdw_energy:          -25.137104
##########                      Grid_es_energy:           -1.156362
##########           Internal_energy_repulsive:            8.942410

@<TRIPOS>MOLECULE
ZINC000089894387
 45 46 1 0 0
SMALL
USER_CHARGES


@<TRIPOS>ATOM
      1 C1         -4.8515    5.1477   54.6039 C.3     1  ZINC000089894387   -0.1700
      2 C2         -5.3088    4.2468   53.4549 C.3     1  ZINC000089894387    0.1700
      3 H3         -5.7496    4.8580   52.6673 H       1  ZINC000089894387    0.0900
      4 N4         -4.1575    3.5161   52.9194 N.am    1  ZINC000089894387   -0.7400
      5 C5         -3.3479    4.1029   52.0158 C.2     1  ZINC000089894387    0.7100
      6 O6         -3.5738    5.2382   51.6438 O.2     1  ZINC000089894387   -0.5900
      7 N7         -2.2878    3.4312   51.5243 N.am    1  ZINC000089894387   -0.7500
      8 C8         -1.4067    4.0697   50.5433 C.3     1  ZINC000089894387    0.1400
      9 C9         -0.8229    3.0047   49.6129 C.3     1  ZINC000089894387    0.0500
     10 O10        -1.8542    2.4964   48.7643 O.3     1  ZINC000089894387   -0.3100
     11 C11        -1.5342    1.4433   47.9672 C.ar    1  ZINC000089894387    0.1400
     12 C12        -1.4960    0.1603   48.4932 C.ar    1  ZINC000089894387   -0.2100
     13 C13        -1.1704   -0.9092   47.6813 C.ar    1  ZINC000089894387   -0.0700
     14 C14        -0.8826   -0.7021   46.3452 C.ar    1  ZINC000089894387   -0.1500
     15 C15        -0.9194    0.5770   45.8175 C.ar    1  ZINC000089894387    0.0000
     16 Cl16       -0.5575    0.8338   44.1392 Cl      1  ZINC000089894387   -0.0600
     17 C17        -1.2507    1.6492   46.6248 C.ar    1  ZINC000089894387   -0.1500
     18 C18        -6.3498    3.2512   53.9706 C.3     1  ZINC000089894387   -0.1000
     19 C19        -7.6716    3.9803   54.2302 C.3     1  ZINC000089894387   -0.1600
     20 C20        -8.7283    2.9637   54.6702 C.3     1  ZINC000089894387    0.0600
     21 O21        -8.8702    1.9598   53.6631 O.3     1  ZINC000089894387   -0.3800
     22 C22        -7.6779    1.2133   53.4114 C.3     1  ZINC000089894387    0.0600
     23 C23        -6.5790    2.1596   52.9207 C.3     1  ZINC000089894387   -0.1500
     24 H24        -4.4108    4.5365   55.3915 H       1  ZINC000089894387    0.0600
     25 H25        -4.1099    5.8569   54.2365 H       1  ZINC000089894387    0.0600
     26 H26        -5.7080    5.6914   55.0024 H       1  ZINC000089894387    0.0700
     27 H27        -3.9780    2.6098   53.2152 H       1  ZINC000089894387    0.3900
     28 H28        -2.1083    2.5250   51.8201 H       1  ZINC000089894387    0.4000
     29 H29        -1.9770    4.7906   49.9577 H       1  ZINC000089894387    0.0800
     30 H30        -0.5966    4.5824   51.0620 H       1  ZINC000089894387    0.0900
     31 H31        -0.0356    3.4474   49.0026 H       1  ZINC000089894387    0.0900
     32 H32        -0.4076    2.1909   50.2073 H       1  ZINC000089894387    0.0700
     33 H33        -1.7204   -0.0025   49.5370 H       1  ZINC000089894387    0.1300
     34 H34        -1.1403   -1.9080   48.0909 H       1  ZINC000089894387    0.1400
     35 H35        -0.6283   -1.5394   45.7123 H       1  ZINC000089894387    0.1400
     36 H36        -1.2798    2.6471   46.2129 H       1  ZINC000089894387    0.1400
     37 H37        -5.9939    2.7982   54.8960 H       1  ZINC000089894387    0.0800
     38 H38        -7.5302    4.7222   55.0161 H       1  ZINC000089894387    0.0700
     39 H39        -8.0004    4.4748   53.3161 H       1  ZINC000089894387    0.0800
     40 H40        -8.4179    2.4986   55.6059 H       1  ZINC000089894387    0.0500
     41 H41        -9.6823    3.4706   54.8151 H       1  ZINC000089894387    0.0900
     42 H42        -7.3537    0.7253   54.3306 H       1  ZINC000089894387    0.0500
     43 H43        -7.8752    0.4592   52.6495 H       1  ZINC000089894387    0.1000
     44 H44        -6.8857    2.6173   51.9803 H       1  ZINC000089894387    0.0800
     45 H45        -5.6562    1.5993   52.7703 H       1  ZINC000089894387    0.0800
@<TRIPOS>BOND
     1     1     2    1
     2     1    24    1
     3     1    25    1
     4     1    26    1
     5     2     3    1
     6     2     4    1
     7     2    18    1
     8     4     5   am
     9     4    27    1
    10     5     6    2
    11     5     7   am
    12     7     8    1
    13     7    28    1
    14     8     9    1
    15     8    29    1
    16     8    30    1
    17     9    10    1
    18     9    31    1
    19     9    32    1
    20    10    11    1
    21    11    17   ar
    22    11    12   ar
    23    12    13   ar
    24    12    33    1
    25    13    14   ar
    26    13    34    1
    27    14    15   ar
    28    14    35    1
    29    15    16    1
    30    15    17   ar
    31    17    36    1
    32    18    23    1
    33    18    19    1
    34    18    37    1
    35    19    20    1
    36    19    38    1
    37    19    39    1
    38    20    21    1
    39    20    40    1
    40    20    41    1
    41    21    22    1
    42    22    23    1
    43    22    42    1
    44    22    43    1
    45    23    44    1
    46    23    45    1
@<TRIPOS>SUBSTRUCTURE
     1 ZINC000089894387        1 TEMP              0 ****  ****    0 ROOT


##########                                Name:    ZINC001122903793
##########                DOCK_Rotatable_Bonds:                   4
##########                         Heavy_Atoms:                  25
##########                    Molecular_Weight:             399.968
##########                DOCK_Rotatable_Bonds:                   4
##########                       Formal_Charge:           0.0100003
##########                     HBond_Acceptors:                   9
##########                        HBond_Donors:                   0
##########                         Heavy_Atoms:                  25
##########                          Grid_Score:          -26.277338
##########                     Grid_vdw_energy:          -25.820974
##########                      Grid_es_energy:           -0.456364
##########           Internal_energy_repulsive:           24.413376

@<TRIPOS>MOLECULE
ZINC001122903793
 47 50 1 0 0
SMALL
USER_CHARGES


@<TRIPOS>ATOM
      1 C1          1.4219    2.5493   44.4705 C.3     1  ZINC001122903793   -0.1400
      2 C2          0.9810    1.6806   45.6503 C.3     1  ZINC001122903793   -0.0400
      3 H3          1.8549    1.3707   46.2234 H       1  ZINC001122903793    0.1000
      4 S4          0.1025    0.2121   45.0334 S.3     1  ZINC001122903793   -0.2500
      5 C5         -0.5544   -0.5056   46.5703 C.3     1  ZINC001122903793   -0.0800
      6 C6         -1.2966    0.5914   47.3411 C.3     1  ZINC001122903793    0.0700
      7 N7         -0.3658    1.6635   47.7008 N.3     1  ZINC001122903793   -0.4800
      8 C8         -0.8865    2.4546   48.7117 C.2     1  ZINC001122903793    0.3700
      9 N9         -1.8724    3.3137   48.5978 N.2     1  ZINC001122903793   -0.2900
     10 N10        -2.1017    3.8773   49.7297 N.2     1  ZINC001122903793   -0.2400
     11 C11        -1.2737    3.4112   50.6385 C.2     1  ZINC001122903793    0.2600
     12 C12        -1.2170    3.8051   52.0557 C.2     1  ZINC001122903793   -0.1600
     13 C13        -2.2763    3.9519   52.8863 C.2     1  ZINC001122903793    0.1600
     14 Cl14       -3.9159    3.6878   52.3805 Cl      1  ZINC001122903793    0.0300
     15 N15        -1.9552    4.3121   54.1089 N.2     1  ZINC001122903793   -0.4600
     16 C16        -0.7006    4.4789   54.3672 C.2     1  ZINC001122903793    0.0300
     17 S17         0.2421    4.1621   52.9768 S.3     1  ZINC001122903793    0.2200
     18 N18        -0.4729    2.4813   50.0140 N.pl3   1  ZINC001122903793   -0.4600
     19 C19         0.6027    1.6910   50.6179 C.3     1  ZINC001122903793    0.1100
     20 C20         1.9311    2.0378   49.9427 C.3     1  ZINC001122903793    0.0700
     21 H21         1.8475    1.9209   48.8622 H       1  ZINC001122903793    0.0800
     22 C22         2.3517    3.4866   50.2960 C.3     1  ZINC001122903793   -0.1500
     23 C23         3.8904    3.4023   50.1026 C.3     1  ZINC001122903793   -0.1500
     24 C24         4.1986    1.9582   50.5533 C.3     1  ZINC001122903793    0.0500
     25 O25         2.9832    1.2043   50.4543 O.3     1  ZINC001122903793   -0.3700
     26 C26         0.0313    2.4783   46.5504 C.3     1  ZINC001122903793    0.1000
     27 H27        -0.8549    2.7550   45.9793 H       1  ZINC001122903793    0.0800
     28 C28         0.7345    3.7447   47.0430 C.3     1  ZINC001122903793   -0.1500
     29 H29         1.9418    3.4318   44.8432 H       1  ZINC001122903793    0.0800
     30 H30         2.0916    1.9772   43.8283 H       1  ZINC001122903793    0.0700
     31 H31         0.5462    2.8577   43.8993 H       1  ZINC001122903793    0.0700
     32 H32        -1.2436   -1.3154   46.3309 H       1  ZINC001122903793    0.1200
     33 H33         0.2671   -0.8874   47.1765 H       1  ZINC001122903793    0.0900
     34 H34        -2.0927    0.9972   46.7169 H       1  ZINC001122903793    0.0700
     35 H35        -1.7289    0.1678   48.2475 H       1  ZINC001122903793    0.0900
     36 H36        -0.3030    4.7728   55.3273 H       1  ZINC001122903793    0.2100
     37 H37         0.6662    1.9171   51.6822 H       1  ZINC001122903793    0.1200
     38 H38         0.3931    0.6298   50.4838 H       1  ZINC001122903793    0.1000
     39 H39         1.9078    4.2039   49.6058 H       1  ZINC001122903793    0.0900
     40 H40         2.0983    3.7287   51.3281 H       1  ZINC001122903793    0.0800
     41 H41         4.1584    3.5477   49.0562 H       1  ZINC001122903793    0.0800
     42 H42         4.4016    4.1247   50.7391 H       1  ZINC001122903793    0.0900
     43 H43         4.9568    1.5218   49.9029 H       1  ZINC001122903793    0.0700
     44 H44         4.5510    1.9599   51.5847 H       1  ZINC001122903793    0.0700
     45 H45         1.6195    3.4692   47.6167 H       1  ZINC001122903793    0.0600
     46 H46         1.0307    4.3519   46.1876 H       1  ZINC001122903793    0.0800
     47 H47         0.0545    4.3152   47.6756 H       1  ZINC001122903793    0.0600
@<TRIPOS>BOND
     1     1     2    1
     2     1    29    1
     3     1    30    1
     4     1    31    1
     5     2     3    1
     6     2    26    1
     7     2     4    1
     8     4     5    1
     9     5     6    1
    10     5    32    1
    11     5    33    1
    12     6     7    1
    13     6    34    1
    14     6    35    1
    15     7     8    1
    16     7    26    1
    17     8    18    1
    18     8     9    2
    19     9    10    1
    20    10    11    2
    21    11    12    1
    22    11    18    1
    23    12    17    1
    24    12    13    2
    25    13    14    1
    26    13    15    1
    27    15    16    2
    28    16    17    1
    29    16    36    1
    30    18    19    1
    31    19    20    1
    32    19    37    1
    33    19    38    1
    34    20    21    1
    35    20    25    1
    36    20    22    1
    37    22    23    1
    38    22    39    1
    39    22    40    1
    40    23    24    1
    41    23    41    1
    42    23    42    1
    43    24    25    1
    44    24    43    1
    45    24    44    1
    46    26    27    1
    47    26    28    1
    48    28    45    1
    49    28    46    1
    50    28    47    1
@<TRIPOS>SUBSTRUCTURE
     1 ZINC001122903793        1 TEMP              0 ****  ****    0 ROOT


##########                                Name:    ZINC000493443319
##########                DOCK_Rotatable_Bonds:                   6
##########                         Heavy_Atoms:                  25
##########                    Molecular_Weight:             348.399
##########                DOCK_Rotatable_Bonds:                   6
##########                       Formal_Charge:        -3.27826e-07
##########                     HBond_Acceptors:                   7
##########                        HBond_Donors:                   0
##########                         Heavy_Atoms:                  25
##########                          Grid_Score:          -26.261024
##########                     Grid_vdw_energy:          -25.414568
##########                      Grid_es_energy:           -0.846457
##########           Internal_energy_repulsive:           51.170925

@<TRIPOS>MOLECULE
ZINC000493443319
 49 51 1 0 0
SMALL
USER_CHARGES


@<TRIPOS>ATOM
      1 C1         -7.6032    1.5949   52.6024 C.3     1  <0>        -0.1500
      2 C2         -8.5926    0.9597   53.5813 C.3     1  <0>         0.0500
      3 O3         -8.3018    1.4039   54.9080 O.3     1  <0>        -0.3200
      4 C4         -9.0180    0.8419   55.9182 C.ar    1  <0>         0.1000
      5 C5         -9.8664   -0.2239   55.6572 C.ar    1  <0>        -0.1700
      6 C6        -10.5939   -0.7948   56.6833 C.ar    1  <0>        -0.1100
      7 C7        -10.4758   -0.3024   57.9746 C.ar    1  <0>         0.0800
      8 O8        -11.1924   -0.8641   58.9846 O.3     1  <0>        -0.3000
      9 C9        -10.5015   -1.7761   59.8409 C.3     1  <0>         0.1000
     10 C10       -11.4663   -2.8680   60.3076 C.3     1  <0>        -0.1800
     11 C11        -9.3405   -2.4143   59.0757 C.3     1  <0>        -0.1500
     12 C12        -9.9662   -1.0335   61.0381 C.2     1  <0>         0.5100
     13 O13        -8.8107   -1.1804   61.3758 O.2     1  <0>        -0.5200
     14 N14       -10.7716   -0.2063   61.7333 N.am    1  <0>        -0.6000
     15 C15       -12.1710   -0.0265   61.3269 C.3     1  <0>         0.0700
     16 C16       -13.0862   -0.3690   62.5134 C.3     1  <0>         0.1300
     17 N17       -12.5321    0.2953   63.7014 N.am    1  <0>        -0.6300
     18 C18       -13.1481    1.1151   64.5546 C.2     1  <0>         0.6500
     19 O19       -14.3488    1.3017   64.5486 O.2     1  <0>        -0.5200
     20 O20       -12.3171    1.7134   65.4186 O.3     1  <0>        -0.3200
     21 C21       -10.9635    1.2080   65.2206 C.3     1  <0>         0.0500
     22 C22       -11.1190    0.1527   64.1136 C.3     1  <0>         0.0800
     23 H23       -10.9075   -0.8505   64.4839 H       1  <0>         0.1100
     24 C24       -10.2537    0.5151   62.9061 C.3     1  <0>         0.1000
     25 C25        -9.6264    0.7625   58.2357 C.ar    1  <0>        -0.1800
     26 C26        -8.8959    1.3309   57.2102 C.ar    1  <0>        -0.1100
     27 H27        -7.8250    1.2561   51.5904 H       1  <0>         0.0800
     28 H28        -7.6914    2.6803   52.6497 H       1  <0>         0.0700
     29 H29        -6.5882    1.3009   52.8696 H       1  <0>         0.0700
     30 H30        -9.6077    1.2537   53.3140 H       1  <0>         0.0600
     31 H31        -8.5044   -0.1257   53.5340 H       1  <0>         0.0600
     32 H32        -9.9583   -0.6073   54.6517 H       1  <0>         0.1400
     33 H33       -11.2551   -1.6242   56.4800 H       1  <0>         0.1400
     34 H34       -11.7514   -3.4883   59.4579 H       1  <0>         0.0800
     35 H35       -10.9784   -3.4861   61.0612 H       1  <0>         0.0900
     36 H36       -12.3565   -2.4074   60.7362 H       1  <0>         0.0800
     37 H37        -8.7009   -1.6319   58.6671 H       1  <0>         0.0800
     38 H38        -8.7604   -3.0414   59.7525 H       1  <0>         0.0900
     39 H39        -9.7332   -3.0243   58.2622 H       1  <0>         0.0900
     40 H40       -12.3335    1.0091   61.0281 H       1  <0>         0.0800
     41 H41       -12.3955   -0.6882   60.4903 H       1  <0>         0.1300
     42 H42       -14.0949   -0.0032   62.3210 H       1  <0>         0.1100
     43 H43       -13.1054   -1.4479   62.6673 H       1  <0>         0.0800
     44 H44       -10.3003    2.0091   64.8943 H       1  <0>         0.1100
     45 H45       -10.5890    0.7495   66.1358 H       1  <0>         0.1100
     46 H46        -9.2206    0.2215   63.0921 H       1  <0>         0.1100
     47 H47       -10.3052    1.5887   62.7252 H       1  <0>         0.0800
     48 H48        -9.5341    1.1457   59.2412 H       1  <0>         0.1600
     49 H49        -8.2345    2.1601   57.4136 H       1  <0>         0.1300
@<TRIPOS>BOND
     1     1     2    1
     2     1    27    1
     3     1    28    1
     4     1    29    1
     5     2     3    1
     6     2    30    1
     7     2    31    1
     8     3     4    1
     9     4    26   ar
    10     4     5   ar
    11     5     6   ar
    12     5    32    1
    13     6     7   ar
    14     6    33    1
    15     7     8    1
    16     7    25   ar
    17     8     9    1
    18     9    10    1
    19     9    11    1
    20     9    12    1
    21    10    34    1
    22    10    35    1
    23    10    36    1
    24    11    37    1
    25    11    38    1
    26    11    39    1
    27    12    13    2
    28    12    14   am
    29    14    24    1
    30    14    15    1
    31    15    16    1
    32    15    40    1
    33    15    41    1
    34    16    17    1
    35    16    42    1
    36    16    43    1
    37    17    22    1
    38    17    18   am
    39    18    19    2
    40    18    20    1
    41    20    21    1
    42    21    22    1
    43    21    44    1
    44    21    45    1
    45    22    23    1
    46    22    24    1
    47    24    46    1
    48    24    47    1
    49    25    26   ar
    50    25    48    1
    51    26    49    1
@<TRIPOS>SUBSTRUCTURE
     1 <0>         1 TEMP              0 ****  ****    0 ROOT


##########                                Name:    ZINC000962730513
##########                DOCK_Rotatable_Bonds:                   6
##########                         Heavy_Atoms:                  24
##########                    Molecular_Weight:             342.465
##########                DOCK_Rotatable_Bonds:                   6
##########                       Formal_Charge:         -0.00999998
##########                     HBond_Acceptors:                   6
##########                        HBond_Donors:                   1
##########                         Heavy_Atoms:                  24
##########                          Grid_Score:          -26.238792
##########                     Grid_vdw_energy:          -25.602844
##########                      Grid_es_energy:           -0.635949
##########           Internal_energy_repulsive:           17.502605

@<TRIPOS>MOLECULE
ZINC000962730513
 46 49 1 0 0
SMALL
USER_CHARGES


@<TRIPOS>ATOM
      1 C1         -9.9180   -1.2763   62.1099 C.3     1  ZINC000962730513   -0.1400
      2 C2        -11.3053   -0.8856   62.6234 C.3     1  ZINC000962730513   -0.0800
      3 C3        -11.8357    0.2670   61.8102 C.2     1  ZINC000962730513   -0.0100
      4 C4        -12.5826    0.1061   60.6772 C.2     1  ZINC000962730513   -0.2800
      5 C5        -12.9742   -1.1798   60.0923 C.2     1  ZINC000962730513    0.6000
      6 O6        -12.6291   -2.2196   60.6221 O.2     1  ZINC000962730513   -0.5200
      7 N7        -13.7163   -1.2103   58.9677 N.am    1  ZINC000962730513   -0.7000
      8 C8        -14.1062   -2.4954   58.3821 C.3     1  ZINC000962730513    0.1200
      9 H9        -14.7689   -3.1081   58.9932 H       1  ZINC000962730513    0.1400
     10 C10       -13.0707   -3.2206   57.5203 C.3     1  ZINC000962730513   -0.1700
     11 H11       -12.0678   -2.8051   57.4219 H       1  ZINC000962730513    0.1200
     12 C12       -13.2402   -4.7395   57.3028 C.3     1  ZINC000962730513    0.0700
     13 N13       -14.1324   -4.8512   56.1202 N.3     1  ZINC000962730513   -0.5000
     14 C14       -14.7853   -6.1664   56.0755 C.3     1  ZINC000962730513    0.1100
     15 C15       -15.2972   -6.4260   54.6821 C.ar    1  ZINC000962730513    0.3200
     16 N16       -15.9073   -7.5656   54.4249 N.ar    1  ZINC000962730513   -0.5100
     17 C17       -16.3699   -7.8284   53.2132 C.ar    1  ZINC000962730513    0.1500
     18 C18       -16.2055   -6.8866   52.2098 C.ar    1  ZINC000962730513   -0.1900
     19 C19       -16.7178   -7.1460   50.8166 C.3     1  ZINC000962730513   -0.1100
     20 C20       -15.5589   -5.7003   52.5188 C.ar    1  ZINC000962730513    0.1500
     21 N21       -15.1276   -5.5052   53.7545 N.ar    1  ZINC000962730513   -0.5000
     22 C22       -15.1305   -3.7676   56.3125 C.3     1  ZINC000962730513    0.0700
     23 C23       -14.2942   -2.5507   56.8648 C.3     1  ZINC000962730513   -0.1700
     24 H24       -14.2293   -1.6585   56.2421 H       1  ZINC000962730513    0.1300
     25 S25       -12.9993    1.6885   60.0338 S.3     1  ZINC000962730513    0.1900
     26 C26       -12.1637    2.4739   61.2971 C.2     1  ZINC000962730513   -0.2200
     27 C27       -11.6213    1.5847   62.1375 C.2     1  ZINC000962730513   -0.1500
     28 H28        -9.9881   -1.5722   61.0631 H       1  ZINC000962730513    0.0600
     29 H29        -9.2433   -0.4254   62.2026 H       1  ZINC000962730513    0.0500
     30 H30        -9.5343   -2.1100   62.6981 H       1  ZINC000962730513    0.0600
     31 H31       -11.9800   -1.7367   62.5307 H       1  ZINC000962730513    0.1000
     32 H32       -11.2352   -0.5899   63.6702 H       1  ZINC000962730513    0.0700
     33 H33       -13.9923   -0.3815   58.5461 H       1  ZINC000962730513    0.4000
     34 H34       -12.2759   -5.2040   57.0965 H       1  ZINC000962730513    0.0900
     35 H35       -13.7056   -5.1989   58.1748 H       1  ZINC000962730513    0.0500
     36 H36       -14.0658   -6.9386   56.3481 H       1  ZINC000962730513    0.1000
     37 H37       -15.6188   -6.1823   56.7777 H       1  ZINC000962730513    0.0700
     38 H38       -16.8686   -8.7644   53.0090 H       1  ZINC000962730513    0.1700
     39 H39       -17.7421   -6.7828   50.7326 H       1  ZINC000962730513    0.0800
     40 H40       -16.0876   -6.6260   50.0950 H       1  ZINC000962730513    0.0700
     41 H41       -16.6943   -8.2168   50.6143 H       1  ZINC000962730513    0.0700
     42 H42       -15.4124   -4.9437   51.7621 H       1  ZINC000962730513    0.1700
     43 H43       -15.5894   -3.5003   55.3607 H       1  ZINC000962730513    0.0800
     44 H44       -15.8916   -4.0749   57.0296 H       1  ZINC000962730513    0.0600
     45 H45       -12.0863    3.5455   61.4064 H       1  ZINC000962730513    0.1700
     46 H46       -11.0499    1.8809   63.0048 H       1  ZINC000962730513    0.1500
@<TRIPOS>BOND
     1     1     2    1
     2     1    28    1
     3     1    29    1
     4     1    30    1
     5     2     3    1
     6     2    31    1
     7     2    32    1
     8     3    27    1
     9     3     4    2
    10     4     5    1
    11     4    25    1
    12     5     6    2
    13     5     7   am
    14     7     8    1
    15     7    33    1
    16     8     9    1
    17     8    23    1
    18     8    10    1
    19    10    11    1
    20    10    23    1
    21    10    12    1
    22    12    13    1
    23    12    34    1
    24    12    35    1
    25    13    14    1
    26    13    22    1
    27    14    15    1
    28    14    36    1
    29    14    37    1
    30    15    21   ar
    31    15    16   ar
    32    16    17   ar
    33    17    18   ar
    34    17    38    1
    35    18    19    1
    36    18    20   ar
    37    19    39    1
    38    19    40    1
    39    19    41    1
    40    20    21   ar
    41    20    42    1
    42    22    23    1
    43    22    43    1
    44    22    44    1
    45    23    24    1
    46    25    26    1
    47    26    27    2
    48    26    45    1
    49    27    46    1
@<TRIPOS>SUBSTRUCTURE
     1 ZINC000962730513        1 TEMP              0 ****  ****    0 ROOT


##########                                Name:    ZINC000187810810
##########                DOCK_Rotatable_Bonds:                   7
##########                         Heavy_Atoms:                  27
##########                    Molecular_Weight:             386.414
##########                DOCK_Rotatable_Bonds:                   7
##########                       Formal_Charge:           0.0599998
##########                     HBond_Acceptors:                   8
##########                        HBond_Donors:                   1
##########                         Heavy_Atoms:                  27
##########                          Grid_Score:          -26.231251
##########                     Grid_vdw_energy:          -23.720785
##########                      Grid_es_energy:           -2.510467
##########           Internal_energy_repulsive:           47.999672

@<TRIPOS>MOLECULE
ZINC000187810810
 52 53 1 0 0
SMALL
USER_CHARGES


@<TRIPOS>ATOM
      1 C1          2.8793    0.1548   45.1323 C.3     1  ZINC000187810810   -0.1800
      2 C2          2.3562    1.0347   43.9951 C.3     1  ZINC000187810810    0.1400
      3 C3          3.3607    2.1536   43.7126 C.3     1  ZINC000187810810   -0.1800
      4 C4          2.1720    0.1848   42.7362 C.3     1  ZINC000187810810   -0.1400
      5 O5          1.0813    1.6141   44.3787 O.3     1  ZINC000187810810   -0.3600
      6 C6          0.3125    0.8974   45.2200 C.2     1  ZINC000187810810    0.6500
      7 O7         -0.3148   -0.0572   44.8055 O.2     1  ZINC000187810810   -0.5600
      8 N8          0.2385    1.2386   46.5217 N.am    1  ZINC000187810810   -0.6000
      9 C9         -0.5900    0.4613   47.4534 C.3     1  ZINC000187810810    0.1100
     10 C10        -1.5464    1.4151   48.1762 C.3     1  ZINC000187810810   -0.1400
     11 C11        -0.7401    2.5358   48.8369 C.3     1  ZINC000187810810    0.1800
     12 C12        -1.6891    3.4713   49.5887 C.3     1  ZINC000187810810   -0.1600
     13 N13         0.2210    1.9559   49.7781 N.am    1  ZINC000187810810   -0.7100
     14 C14         1.0689    2.7563   50.4542 C.2     1  ZINC000187810810    0.5500
     15 O15         1.0371    3.9591   50.2818 O.2     1  ZINC000187810810   -0.5100
     16 C16         2.0378    2.1712   51.4055 C.ar    1  ZINC000187810810   -0.0900
     17 C17         2.7534    1.0239   51.0603 C.ar    1  ZINC000187810810   -0.0900
     18 C18         3.6564    0.4832   51.9525 C.ar    1  ZINC000187810810   -0.0900
     19 C19         3.8527    1.0757   53.1872 C.ar    1  ZINC000187810810   -0.0900
     20 C20         3.1460    2.2132   53.5358 C.ar    1  ZINC000187810810   -0.0800
     21 C21         2.2448    2.7674   52.6507 C.ar    1  ZINC000187810810   -0.1300
     22 C22         1.4763    4.0064   53.0319 C.3     1  ZINC000187810810    0.5200
     23 F23         2.0049    5.1100   52.3537 F       1  ZINC000187810810   -0.1800
     24 F24         0.1307    3.8460   52.6841 F       1  ZINC000187810810   -0.1600
     25 F25         1.5799    4.2135   54.4116 F       1  ZINC000187810810   -0.1600
     26 C26         0.0114    3.3268   47.7636 C.3     1  ZINC000187810810   -0.1500
     27 C27         0.9898    2.3913   47.0373 C.3     1  ZINC000187810810    0.1300
     28 H28         3.0106    0.7602   46.0292 H       1  ZINC000187810810    0.0900
     29 H29         2.1637   -0.6423   45.3335 H       1  ZINC000187810810    0.0600
     30 H30         3.8363   -0.2803   44.8443 H       1  ZINC000187810810    0.0700
     31 H31         4.3177    1.7185   43.4246 H       1  ZINC000187810810    0.0700
     32 H32         2.9881    2.7803   42.9023 H       1  ZINC000187810810    0.0600
     33 H33         3.4920    2.7590   44.6094 H       1  ZINC000187810810    0.0900
     34 H34         1.4563   -0.6123   42.9375 H       1  ZINC000187810810    0.0700
     35 H35         1.7993    0.8116   41.9261 H       1  ZINC000187810810    0.0700
     36 H36         3.1290   -0.2503   42.4482 H       1  ZINC000187810810    0.0800
     37 H37        -1.1641   -0.2814   46.8995 H       1  ZINC000187810810    0.1000
     38 H38         0.0492   -0.0370   48.1823 H       1  ZINC000187810810    0.0700
     39 H39        -2.2444    1.8442   47.4574 H       1  ZINC000187810810    0.0900
     40 H40        -2.0996    0.8669   48.9387 H       1  ZINC000187810810    0.0900
     41 H41        -2.2235    2.9083   50.3539 H       1  ZINC000187810810    0.0600
     42 H42        -1.1151    4.2696   50.0593 H       1  ZINC000187810810    0.0800
     43 H43        -2.4046    3.9025   48.8886 H       1  ZINC000187810810    0.0700
     44 H44         0.2472    0.9960   49.9148 H       1  ZINC000187810810    0.4000
     45 H45         2.6005    0.5601   50.0970 H       1  ZINC000187810810    0.1400
     46 H46         4.2108   -0.4046   51.6866 H       1  ZINC000187810810    0.1400
     47 H47         4.5603    0.6483   53.8820 H       1  ZINC000187810810    0.1400
     48 H48         3.3036    2.6706   54.5014 H       1  ZINC000187810810    0.1500
     49 H49        -0.7014    3.7378   47.0487 H       1  ZINC000187810810    0.0800
     50 H50         0.5668    4.1391   48.2324 H       1  ZINC000187810810    0.1000
     51 H51         1.7567    2.0524   47.7339 H       1  ZINC000187810810    0.0700
     52 H52         1.4558    2.9228   46.2076 H       1  ZINC000187810810    0.1000
@<TRIPOS>BOND
     1     1     2    1
     2     1    28    1
     3     1    29    1
     4     1    30    1
     5     2     3    1
     6     2     4    1
     7     2     5    1
     8     3    31    1
     9     3    32    1
    10     3    33    1
    11     4    34    1
    12     4    35    1
    13     4    36    1
    14     5     6    1
    15     6     7    2
    16     6     8   am
    17     8    27    1
    18     8     9    1
    19     9    10    1
    20     9    37    1
    21     9    38    1
    22    10    11    1
    23    10    39    1
    24    10    40    1
    25    11    12    1
    26    11    13    1
    27    11    26    1
    28    12    41    1
    29    12    42    1
    30    12    43    1
    31    13    14   am
    32    13    44    1
    33    14    15    2
    34    14    16    1
    35    16    21   ar
    36    16    17   ar
    37    17    18   ar
    38    17    45    1
    39    18    19   ar
    40    18    46    1
    41    19    20   ar
    42    19    47    1
    43    20    21   ar
    44    20    48    1
    45    21    22    1
    46    22    23    1
    47    22    24    1
    48    22    25    1
    49    26    27    1
    50    26    49    1
    51    26    50    1
    52    27    51    1
    53    27    52    1
@<TRIPOS>SUBSTRUCTURE
     1 ZINC000187810810        1 TEMP              0 ****  ****    0 ROOT


##########                                Name:    ZINC001011676549
##########                DOCK_Rotatable_Bonds:                   6
##########                         Heavy_Atoms:                  24
##########                    Molecular_Weight:             330.387
##########                DOCK_Rotatable_Bonds:                   6
##########                       Formal_Charge:        -1.49012e-07
##########                     HBond_Acceptors:                   7
##########                        HBond_Donors:                   1
##########                         Heavy_Atoms:                  24
##########                          Grid_Score:          -26.227768
##########                     Grid_vdw_energy:          -25.408495
##########                      Grid_es_energy:           -0.819272
##########           Internal_energy_repulsive:           14.088553

@<TRIPOS>MOLECULE
ZINC001011676549
 46 48 1 0 0
SMALL
USER_CHARGES


@<TRIPOS>ATOM
      1 C1        -10.5578   -1.3067   57.5089 C.3     1  ZINC001011676549   -0.1700
      2 C2         -9.5233   -0.4470   58.2380 C.3     1  ZINC001011676549    0.1300
      3 H3         -8.6074   -1.0182   58.3895 H       1  ZINC001011676549    0.0900
      4 C4         -9.2202    0.8217   57.4134 C.3     1  ZINC001011676549    0.1400
      5 H5         -8.1706    1.1007   57.5066 H       1  ZINC001011676549    0.1100
      6 N6         -9.5790    0.6237   56.0069 N.am    1  ZINC001011676549   -0.7200
      7 C7         -9.2139    1.5352   55.0836 C.2     1  ZINC001011676549    0.5200
      8 O8         -8.5897    2.5199   55.4174 O.2     1  ZINC001011676549   -0.5300
      9 C9         -9.5815    1.3306   53.6365 C.3     1  ZINC001011676549   -0.0900
     10 C10        -8.4325    0.6756   52.9141 C.ar    1  ZINC001011676549   -0.1800
     11 C11        -7.1230    1.0384   53.1876 C.ar    1  ZINC001011676549    0.1600
     12 N12        -6.1398    0.4414   52.5334 N.ar    1  ZINC001011676549   -0.5200
     13 C13        -6.3937   -0.4864   51.6325 C.ar    1  ZINC001011676549    0.3000
     14 N14        -7.6257   -0.8568   51.3466 N.ar    1  ZINC001011676549   -0.5200
     15 C15        -8.6593   -0.3081   51.9646 C.ar    1  ZINC001011676549    0.1600
     16 C16       -10.1327    1.8902   58.0716 C.3     1  ZINC001011676549   -0.1400
     17 C17       -10.0834    1.4665   59.5608 C.3     1  ZINC001011676549    0.1000
     18 N18       -10.0606   -0.0105   59.5350 N.am    1  ZINC001011676549   -0.6100
     19 C19       -10.4678   -0.8199   60.5328 C.2     1  ZINC001011676549    0.5800
     20 O20       -10.4034   -2.0272   60.4012 O.2     1  ZINC001011676549   -0.5300
     21 C21       -10.9904   -0.2430   61.7811 C.2     1  ZINC001011676549   -0.1400
     22 C22       -10.1405    0.2775   62.6479 C.2     1  ZINC001011676549   -0.1500
     23 C23       -10.5821    0.8806   63.9515 C.3     1  ZINC001011676549    0.0900
     24 O24       -11.9893    1.1275   63.9264 O.3     1  ZINC001011676549   -0.3800
     25 C25       -12.7526   -0.0113   63.5105 C.3     1  ZINC001011676549    0.0600
     26 C26       -12.4747   -0.2606   62.0239 C.3     1  ZINC001011676549   -0.1100
     27 H27       -11.4749   -0.7336   57.3719 H       1  ZINC001011676549    0.0600
     28 H28       -10.1647   -1.6012   56.5359 H       1  ZINC001011676549    0.0700
     29 H29       -10.7709   -2.1977   58.0994 H       1  ZINC001011676549    0.0800
     30 H30       -10.0793   -0.1632   55.7401 H       1  ZINC001011676549    0.4100
     31 H31       -10.4625    0.6919   53.5723 H       1  ZINC001011676549    0.1100
     32 H32        -9.7974    2.2949   53.1766 H       1  ZINC001011676549    0.1100
     33 H33        -6.9081    1.7982   53.9244 H       1  ZINC001011676549    0.1700
     34 H34        -5.5702   -0.9556   51.1147 H       1  ZINC001011676549    0.2000
     35 H35        -9.6665   -0.6165   51.7258 H       1  ZINC001011676549    0.1700
     36 H36        -9.7227    2.8910   57.9364 H       1  ZINC001011676549    0.0900
     37 H37       -11.1488    1.8299   57.6817 H       1  ZINC001011676549    0.0800
     38 H38        -9.1799    1.8502   60.0347 H       1  ZINC001011676549    0.0800
     39 H39       -10.9692    1.8234   60.0863 H       1  ZINC001011676549    0.0800
     40 H40        -9.0869    0.2692   62.4106 H       1  ZINC001011676549    0.1200
     41 H41       -10.3503    0.1929   64.7648 H       1  ZINC001011676549    0.0700
     42 H42       -10.0531    1.8199   64.1129 H       1  ZINC001011676549    0.1100
     43 H43       -12.4567   -0.8835   64.0935 H       1  ZINC001011676549    0.0600
     44 H44       -13.8146    0.1867   63.6553 H       1  ZINC001011676549    0.1000
     45 H45       -12.9552    0.5164   61.4294 H       1  ZINC001011676549    0.0900
     46 H46       -12.8731   -1.2342   61.7384 H       1  ZINC001011676549    0.0900
@<TRIPOS>BOND
     1     1     2    1
     2     1    27    1
     3     1    28    1
     4     1    29    1
     5     2     3    1
     6     2    18    1
     7     2     4    1
     8     4     5    1
     9     4     6    1
    10     4    16    1
    11     6     7   am
    12     6    30    1
    13     7     8    2
    14     7     9    1
    15     9    10    1
    16     9    31    1
    17     9    32    1
    18    10    15   ar
    19    10    11   ar
    20    11    12   ar
    21    11    33    1
    22    12    13   ar
    23    13    14   ar
    24    13    34    1
    25    14    15   ar
    26    15    35    1
    27    16    17    1
    28    16    36    1
    29    16    37    1
    30    17    18    1
    31    17    38    1
    32    17    39    1
    33    18    19   am
    34    19    20    2
    35    19    21    1
    36    21    26    1
    37    21    22    2
    38    22    23    1
    39    22    40    1
    40    23    24    1
    41    23    41    1
    42    23    42    1
    43    24    25    1
    44    25    26    1
    45    25    43    1
    46    25    44    1
    47    26    45    1
    48    26    46    1
@<TRIPOS>SUBSTRUCTURE
     1 ZINC001011676549        1 TEMP              0 ****  ****    0 ROOT


##########                                Name:    ZINC000123469372
##########                DOCK_Rotatable_Bonds:                   7
##########                         Heavy_Atoms:                  25
##########                    Molecular_Weight:             341.382
##########                DOCK_Rotatable_Bonds:                   7
##########                       Formal_Charge:          -0.0300001
##########                     HBond_Acceptors:                   5
##########                        HBond_Donors:                   2
##########                         Heavy_Atoms:                  25
##########                          Grid_Score:          -26.157125
##########                     Grid_vdw_energy:          -25.881269
##########                      Grid_es_energy:           -0.275856
##########           Internal_energy_repulsive:            9.968367

@<TRIPOS>MOLECULE
ZINC000123469372
 45 47 1 0 0
SMALL
USER_CHARGES


@<TRIPOS>ATOM
      1 C1        -13.6252   -2.0705   60.9313 C.3     1  ZINC000123469372   -0.1700
      2 C2        -12.5668   -2.1598   59.8300 C.3     1  ZINC000123469372    0.1500
      3 H3        -12.4646   -1.1891   59.3447 H       1  ZINC000123469372    0.0900
      4 C4        -11.2256   -2.5671   60.4434 C.3     1  ZINC000123469372   -0.1600
      5 C5        -10.1903   -2.7480   59.3316 C.3     1  ZINC000123469372    0.1500
      6 H6        -10.5015   -3.5595   58.6738 H       1  ZINC000123469372    0.1100
      7 O7         -8.9214   -3.0625   59.9087 O.3     1  ZINC000123469372   -0.5500
      8 C8        -10.0783   -1.4723   58.5370 C.ar    1  ZINC000123469372   -0.1200
      9 C9         -9.8174   -0.2774   59.1813 C.ar    1  ZINC000123469372   -0.1100
     10 C10        -9.7147    0.8928   58.4524 C.ar    1  ZINC000123469372   -0.1200
     11 C11        -9.8726    0.8679   57.0793 C.ar    1  ZINC000123469372   -0.1200
     12 C12       -10.1325   -0.3271   56.4350 C.ar    1  ZINC000123469372   -0.1200
     13 C13       -10.2310   -1.4980   57.1633 C.ar    1  ZINC000123469372   -0.1100
     14 N14       -12.9750   -3.1599   58.8404 N.am    1  ZINC000123469372   -0.7100
     15 C15       -13.7872   -2.8094   57.8236 C.2     1  ZINC000123469372    0.5700
     16 O16       -14.1828   -1.6622   57.7283 O.2     1  ZINC000123469372   -0.5400
     17 C17       -14.1933   -3.8073   56.8347 C.2     1  ZINC000123469372   -0.2200
     18 C18       -15.0443   -3.4683   55.8351 C.2     1  ZINC000123469372    0.0000
     19 C19       -15.4354   -4.5164   54.8796 C.ar    1  ZINC000123469372   -0.1200
     20 C20       -16.0225   -4.2023   53.6547 C.ar    1  ZINC000123469372   -0.0900
     21 C21       -16.3744   -5.2194   52.7881 C.ar    1  ZINC000123469372    0.0700
     22 F22       -16.9434   -4.9232   51.5992 F       1  ZINC000123469372   -0.1400
     23 C23       -16.1454   -6.5434   53.1332 C.ar    1  ZINC000123469372   -0.1100
     24 C24       -15.5639   -6.8643   54.3462 C.ar    1  ZINC000123469372   -0.1200
     25 C25       -15.2050   -5.8593   55.2258 C.ar    1  ZINC000123469372    0.1300
     26 O26       -14.6335   -6.1420   56.4228 O.3     1  ZINC000123469372   -0.3000
     27 C27       -13.6630   -5.2150   56.9186 C.3     1  ZINC000123469372    0.1100
     28 H28       -13.3215   -1.3264   61.6676 H       1  ZINC000123469372    0.0700
     29 H29       -14.5806   -1.7804   60.4943 H       1  ZINC000123469372    0.0600
     30 H30       -13.7274   -3.0412   61.4165 H       1  ZINC000123469372    0.0600
     31 H31       -10.8894   -1.7905   61.1302 H       1  ZINC000123469372    0.0900
     32 H32       -11.3441   -3.5052   60.9857 H       1  ZINC000123469372    0.0800
     33 H33        -8.6361   -2.4421   60.5933 H       1  ZINC000123469372    0.3700
     34 H34        -9.6942   -0.2580   60.2540 H       1  ZINC000123469372    0.1200
     35 H35        -9.5116    1.8264   58.9559 H       1  ZINC000123469372    0.1200
     36 H36        -9.7931    1.7822   56.5101 H       1  ZINC000123469372    0.1200
     37 H37       -10.2561   -0.3464   55.3623 H       1  ZINC000123469372    0.1200
     38 H38       -10.4341   -2.4316   56.6599 H       1  ZINC000123469372    0.1200
     39 H39       -12.6608   -4.0744   58.9169 H       1  ZINC000123469372    0.4000
     40 H40       -15.4232   -2.4611   55.7434 H       1  ZINC000123469372    0.1500
     41 H41       -16.2013   -3.1718   53.3855 H       1  ZINC000123469372    0.1500
     42 H42       -16.4242   -7.3306   52.4486 H       1  ZINC000123469372    0.1500
     43 H43       -15.3903   -7.8980   54.6061 H       1  ZINC000123469372    0.1500
     44 H44       -12.7503   -5.2988   56.3288 H       1  ZINC000123469372    0.0800
     45 H45       -13.4388   -5.4501   57.9591 H       1  ZINC000123469372    0.1100
@<TRIPOS>BOND
     1     1     2    1
     2     1    28    1
     3     1    29    1
     4     1    30    1
     5     2     3    1
     6     2     4    1
     7     2    14    1
     8     4     5    1
     9     4    31    1
    10     4    32    1
    11     5     6    1
    12     5     7    1
    13     5     8    1
    14     7    33    1
    15     8    13   ar
    16     8     9   ar
    17     9    10   ar
    18     9    34    1
    19    10    11   ar
    20    10    35    1
    21    11    12   ar
    22    11    36    1
    23    12    13   ar
    24    12    37    1
    25    13    38    1
    26    14    15   am
    27    14    39    1
    28    15    16    2
    29    15    17    1
    30    17    27    1
    31    17    18    2
    32    18    19    1
    33    18    40    1
    34    19    25   ar
    35    19    20   ar
    36    20    21   ar
    37    20    41    1
    38    21    22    1
    39    21    23   ar
    40    23    24   ar
    41    23    42    1
    42    24    25   ar
    43    24    43    1
    44    25    26    1
    45    26    27    1
    46    27    44    1
    47    27    45    1
@<TRIPOS>SUBSTRUCTURE
     1 ZINC000123469372        1 TEMP              0 ****  ****    0 ROOT


##########                                Name:    ZINC000032503012
##########                DOCK_Rotatable_Bonds:                   8
##########                         Heavy_Atoms:                  27
##########                    Molecular_Weight:             390.503
##########                DOCK_Rotatable_Bonds:                   8
##########                       Formal_Charge:           0.0099995
##########                     HBond_Acceptors:                   7
##########                        HBond_Donors:                   2
##########                         Heavy_Atoms:                  27
##########                          Grid_Score:          -26.153902
##########                     Grid_vdw_energy:          -25.612080
##########                      Grid_es_energy:           -0.541822
##########           Internal_energy_repulsive:           44.797054

@<TRIPOS>MOLECULE
ZINC000032503012
 53 54 1 0 0
SMALL
USER_CHARGES


@<TRIPOS>ATOM
      1 C1        -10.3638    3.9651   57.9184 C.3     1  ZINC000032503012   -0.1200
      2 C2        -10.1393    2.5133   58.2544 C.ar    1  ZINC000032503012   -0.0500
      3 C3         -9.8232    1.6136   57.2535 C.ar    1  ZINC000032503012   -0.1600
      4 C4         -9.6166    0.2807   57.5586 C.ar    1  ZINC000032503012   -0.0700
      5 C5         -9.7258   -0.1549   58.8648 C.ar    1  ZINC000032503012   -0.1500
      6 C6        -10.0430    0.7461   59.8712 C.ar    1  ZINC000032503012    0.1300
      7 O7        -10.1505    0.3200   61.1572 O.3     1  ZINC000032503012   -0.2800
      8 C8         -9.9551   -1.0750   61.3969 C.3     1  ZINC000032503012    0.0700
      9 H9         -9.1484   -1.4432   60.7630 H       1  ZINC000032503012    0.1100
     10 C10        -9.5894   -1.2938   62.8664 C.3     1  ZINC000032503012   -0.1800
     11 C11       -11.2247   -1.8220   61.0787 C.2     1  ZINC000032503012    0.5200
     12 O12       -11.4353   -2.9035   61.5857 O.2     1  ZINC000032503012   -0.4900
     13 N13       -12.1261   -1.2883   60.2307 N.am    1  ZINC000032503012   -0.6700
     14 C14       -13.3049   -1.9818   59.9352 C.ar    1  ZINC000032503012    0.1300
     15 C15       -14.4481   -1.7652   60.6930 C.ar    1  ZINC000032503012   -0.0600
     16 C16       -15.6102   -2.4513   60.3988 C.ar    1  ZINC000032503012   -0.1200
     17 C17       -15.6359   -3.3535   59.3513 C.ar    1  ZINC000032503012   -0.0300
     18 C18       -14.4988   -3.5718   58.5949 C.ar    1  ZINC000032503012   -0.6600
     19 S19       -14.5367   -4.7226   57.2611 S.o2    1  ZINC000032503012    2.7000
     20 O20       -13.2466   -4.6896   56.6660 O.2     1  ZINC000032503012   -0.9600
     21 O21       -15.1266   -5.9100   57.7721 O.2     1  ZINC000032503012   -0.9500
     22 N22       -15.5890   -4.1271   56.1296 N.am    1  ZINC000032503012   -1.1100
     23 C23       -15.3387   -2.8227   55.5112 C.3     1  ZINC000032503012    0.1700
     24 C24       -13.8433   -2.6723   55.2253 C.3     1  ZINC000032503012   -0.1900
     25 C25       -16.1214   -2.7211   54.2006 C.3     1  ZINC000032503012   -0.1500
     26 C26       -15.7903   -1.7125   56.4623 C.3     1  ZINC000032503012   -0.1800
     27 C27       -13.3356   -2.8841   58.8797 C.ar    1  ZINC000032503012   -0.0400
     28 C28       -10.2441    2.0835   59.5634 C.ar    1  ZINC000032503012   -0.2100
     29 H29        -9.4175    4.5026   57.9790 H       1  ZINC000032503012    0.0700
     30 H30       -10.7638    4.0464   56.9076 H       1  ZINC000032503012    0.0700
     31 H31       -11.0725    4.3962   58.6254 H       1  ZINC000032503012    0.0700
     32 H32        -9.7378    1.9522   56.2316 H       1  ZINC000032503012    0.1300
     33 H33        -9.3701   -0.4203   56.7749 H       1  ZINC000032503012    0.1300
     34 H34        -9.5647   -1.1960   59.1026 H       1  ZINC000032503012    0.1300
     35 H35        -8.6711   -0.7536   63.0965 H       1  ZINC000032503012    0.0800
     36 H36       -10.3961   -0.9257   63.5002 H       1  ZINC000032503012    0.0800
     37 H37        -9.4404   -2.3580   63.0492 H       1  ZINC000032503012    0.0800
     38 H38       -11.9577   -0.4233   59.8252 H       1  ZINC000032503012    0.4100
     39 H39       -14.4285   -1.0611   61.5118 H       1  ZINC000032503012    0.1400
     40 H40       -16.4998   -2.2833   60.9877 H       1  ZINC000032503012    0.1400
     41 H41       -16.5457   -3.8890   59.1236 H       1  ZINC000032503012    0.1500
     42 H42       -16.3711   -4.6419   55.8762 H       1  ZINC000032503012    0.4200
     43 H43       -13.4837   -3.5556   54.6975 H       1  ZINC000032503012    0.0700
     44 H44       -13.6782   -1.7885   54.6091 H       1  ZINC000032503012    0.0800
     45 H45       -13.3024   -2.5658   56.1657 H       1  ZINC000032503012    0.0700
     46 H46       -17.1867   -2.8282   54.4042 H       1  ZINC000032503012    0.0700
     47 H47       -15.9352   -1.7506   53.7406 H       1  ZINC000032503012    0.0700
     48 H48       -15.7996   -3.5120   53.5231 H       1  ZINC000032503012    0.0600
     49 H49       -15.1055   -1.6582   57.3086 H       1  ZINC000032503012    0.0900
     50 H50       -15.7909   -0.7592   55.9337 H       1  ZINC000032503012    0.0700
     51 H51       -16.7961   -1.9291   56.8222 H       1  ZINC000032503012    0.0600
     52 H52       -12.4480   -3.0551   58.2887 H       1  ZINC000032503012    0.1400
     53 H53       -10.4912    2.7868   60.3449 H       1  ZINC000032503012    0.1300
@<TRIPOS>BOND
     1     1     2    1
     2     1    29    1
     3     1    30    1
     4     1    31    1
     5     2    28   ar
     6     2     3   ar
     7     3     4   ar
     8     3    32    1
     9     4     5   ar
    10     4    33    1
    11     5     6   ar
    12     5    34    1
    13     6     7    1
    14     6    28   ar
    15     7     8    1
    16     8     9    1
    17     8    10    1
    18     8    11    1
    19    10    35    1
    20    10    36    1
    21    10    37    1
    22    11    12    2
    23    11    13   am
    24    13    14    1
    25    13    38    1
    26    14    27   ar
    27    14    15   ar
    28    15    16   ar
    29    15    39    1
    30    16    17   ar
    31    16    40    1
    32    17    18   ar
    33    17    41    1
    34    18    19    1
    35    18    27   ar
    36    19    20    2
    37    19    21    2
    38    19    22   am
    39    22    23    1
    40    22    42    1
    41    23    24    1
    42    23    25    1
    43    23    26    1
    44    24    43    1
    45    24    44    1
    46    24    45    1
    47    25    46    1
    48    25    47    1
    49    25    48    1
    50    26    49    1
    51    26    50    1
    52    26    51    1
    53    27    52    1
    54    28    53    1
@<TRIPOS>SUBSTRUCTURE
     1 ZINC000032503012        1 TEMP              0 ****  ****    0 ROOT


##########                                Name:    ZINC001344051361
##########                DOCK_Rotatable_Bonds:                   8
##########                         Heavy_Atoms:                  28
##########                    Molecular_Weight:             379.456
##########                DOCK_Rotatable_Bonds:                   8
##########                       Formal_Charge:          -0.0100006
##########                     HBond_Acceptors:                   5
##########                        HBond_Donors:                   0
##########                         Heavy_Atoms:                  28
##########                          Grid_Score:          -26.138092
##########                     Grid_vdw_energy:          -24.884192
##########                      Grid_es_energy:           -1.253901
##########           Internal_energy_repulsive:           17.750378

@<TRIPOS>MOLECULE
ZINC001344051361
 53 56 1 0 0
SMALL
USER_CHARGES


@<TRIPOS>ATOM
      1 O1        -11.2247   -1.3632   60.4401 O.2     1  ZINC001344051361   -0.4800
      2 C2        -11.5914   -1.7807   59.3672 C.2     1  ZINC001344051361    0.4800
      3 O3        -12.8149   -1.4720   58.9095 O.3     1  ZINC001344051361   -0.3500
      4 C4        -13.6880   -2.5795   58.5636 C.3     1  ZINC001344051361    0.0700
      5 C5        -15.1054   -2.2855   59.0593 C.3     1  ZINC001344051361   -0.1000
      6 H6        -15.4262   -1.3123   58.6877 H       1  ZINC001344051361    0.0900
      7 C7        -16.0598   -3.3673   58.5484 C.3     1  ZINC001344051361   -0.1200
      8 C8        -17.4833   -3.0563   59.0162 C.3     1  ZINC001344051361   -0.1300
      9 C9        -17.5252   -3.0586   60.5475 C.3     1  ZINC001344051361    0.0800
     10 N10       -16.5076   -2.1254   61.0498 N.am    1  ZINC001344051361   -0.6100
     11 C11       -16.8403   -1.1472   61.9153 C.2     1  ZINC001344051361    0.5600
     12 O12       -17.9916   -1.0309   62.2875 O.2     1  ZINC001344051361   -0.5300
     13 C13       -15.8051   -0.2158   62.4119 C.ar    1  ZINC001344051361   -0.1300
     14 C14       -15.1499   -0.4741   63.6169 C.ar    1  ZINC001344051361   -0.1000
     15 C15       -14.1845    0.3989   64.0745 C.ar    1  ZINC001344051361   -0.1300
     16 C16       -13.8658    1.5285   63.3419 C.ar    1  ZINC001344051361   -0.0900
     17 C17       -14.5119    1.7907   62.1469 C.ar    1  ZINC001344051361   -0.1300
     18 C18       -15.4748    0.9225   61.6749 C.ar    1  ZINC001344051361   -0.0600
     19 C19       -15.1202   -2.2782   60.5911 C.3     1  ZINC001344051361    0.1200
     20 C20       -10.6728   -2.6427   58.5400 C.3     1  ZINC001344051361    0.0200
     21 O21       -10.7324   -2.4290   57.1283 O.3     1  ZINC001344051361   -0.2500
     22 C22       -10.3525   -1.2063   56.6728 C.ar    1  ZINC001344051361    0.1200
     23 C23       -10.6954   -0.8056   55.3896 C.ar    1  ZINC001344051361   -0.2000
     24 C24       -10.3084    0.4381   54.9291 C.ar    1  ZINC001344051361   -0.0800
     25 C25        -9.5794    1.2829   55.7456 C.ar    1  ZINC001344051361   -0.1500
     26 C26        -9.2362    0.8857   57.0247 C.ar    1  ZINC001344051361   -0.0800
     27 C27        -9.6261   -0.3545   57.4922 C.ar    1  ZINC001344051361   -0.1400
     28 C28        -9.3151   -3.0092   59.1427 C.3     1  ZINC001344051361   -0.1700
     29 C29       -10.4127   -4.0691   59.0282 C.3     1  ZINC001344051361   -0.1100
     30 H30       -13.7009   -2.7077   57.4813 H       1  ZINC001344051361    0.0800
     31 H31       -13.3209   -3.4920   59.0332 H       1  ZINC001344051361    0.0800
     32 H32       -16.0325   -3.3906   57.4590 H       1  ZINC001344051361    0.0700
     33 H33       -15.7526   -4.3370   58.9399 H       1  ZINC001344051361    0.0700
     34 H34       -17.7822   -2.0758   58.6456 H       1  ZINC001344051361    0.0700
     35 H35       -18.1661   -3.8144   58.6325 H       1  ZINC001344051361    0.0800
     36 H36       -18.5113   -2.7411   60.8866 H       1  ZINC001344051361    0.1100
     37 H37       -17.3150   -4.0621   60.9174 H       1  ZINC001344051361    0.0700
     38 H38       -15.3983   -1.3551   64.1901 H       1  ZINC001344051361    0.1400
     39 H39       -13.6766    0.2002   65.0067 H       1  ZINC001344051361    0.1300
     40 H40       -13.1096    2.2089   63.7047 H       1  ZINC001344051361    0.1300
     41 H41       -14.2587    2.6743   61.5800 H       1  ZINC001344051361    0.1300
     42 H42       -15.9782    1.1281   60.7418 H       1  ZINC001344051361    0.1300
     43 H43       -14.7134   -3.2181   60.9642 H       1  ZINC001344051361    0.0700
     44 H44       -14.5198   -1.4462   60.9592 H       1  ZINC001344051361    0.1000
     45 H45       -11.2640   -1.4654   54.7512 H       1  ZINC001344051361    0.1300
     46 H46       -10.5750    0.7505   53.9302 H       1  ZINC001344051361    0.1300
     47 H47        -9.2775    2.2546   55.3836 H       1  ZINC001344051361    0.1300
     48 H48        -8.6665    1.5472   57.6605 H       1  ZINC001344051361    0.1300
     49 H49        -9.3577   -0.6644   58.4913 H       1  ZINC001344051361    0.1300
     50 H50        -8.4671   -3.0875   58.4625 H       1  ZINC001344051361    0.1200
     51 H51        -9.0864   -2.6270   60.1375 H       1  ZINC001344051361    0.1200
     52 H52       -10.9059   -4.3842   59.9477 H       1  ZINC001344051361    0.1200
     53 H53       -10.2866   -4.8446   58.2726 H       1  ZINC001344051361    0.1200
@<TRIPOS>BOND
     1     1     2    2
     2     2     3    1
     3     2    20    1
     4     3     4    1
     5     4     5    1
     6     4    30    1
     7     4    31    1
     8     5     6    1
     9     5    19    1
    10     5     7    1
    11     7     8    1
    12     7    32    1
    13     7    33    1
    14     8     9    1
    15     8    34    1
    16     8    35    1
    17     9    10    1
    18     9    36    1
    19     9    37    1
    20    10    11   am
    21    10    19    1
    22    11    12    2
    23    11    13    1
    24    13    18   ar
    25    13    14   ar
    26    14    15   ar
    27    14    38    1
    28    15    16   ar
    29    15    39    1
    30    16    17   ar
    31    16    40    1
    32    17    18   ar
    33    17    41    1
    34    18    42    1
    35    19    43    1
    36    19    44    1
    37    20    29    1
    38    20    21    1
    39    20    28    1
    40    21    22    1
    41    22    27   ar
    42    22    23   ar
    43    23    24   ar
    44    23    45    1
    45    24    25   ar
    46    24    46    1
    47    25    26   ar
    48    25    47    1
    49    26    27   ar
    50    26    48    1
    51    27    49    1
    52    28    29    1
    53    28    50    1
    54    28    51    1
    55    29    52    1
    56    29    53    1
@<TRIPOS>SUBSTRUCTURE
     1 ZINC001344051361        1 TEMP              0 ****  ****    0 ROOT


##########                                Name:    ZINC001272744746
##########                DOCK_Rotatable_Bonds:                   6
##########                         Heavy_Atoms:                  25
##########                    Molecular_Weight:             348.417
##########                DOCK_Rotatable_Bonds:                   6
##########                       Formal_Charge:           0.0299999
##########                     HBond_Acceptors:                   6
##########                        HBond_Donors:                   1
##########                         Heavy_Atoms:                  25
##########                          Grid_Score:          -26.135809
##########                     Grid_vdw_energy:          -24.467627
##########                      Grid_es_energy:           -1.668182
##########           Internal_energy_repulsive:           23.786104

@<TRIPOS>MOLECULE
ZINC001272744746
 50 52 1 0 0
SMALL
USER_CHARGES


@<TRIPOS>ATOM
      1 C1        -16.6669   -2.7050   56.7015 C.2     1  ZINC001272744746   -0.1700
      2 C2        -15.4933   -2.2299   57.0378 C.2     1  ZINC001272744746   -0.1700
      3 C3        -14.6361   -2.9723   58.0303 C.3     1  ZINC001272744746    0.1500
      4 N4        -13.2338   -2.5898   57.8465 N.am    1  ZINC001272744746   -0.6100
      5 C5        -12.5025   -1.6713   58.7297 C.3     1  ZINC001272744746    0.0700
      6 C6        -11.0147   -1.8990   58.4118 C.3     1  ZINC001272744746    0.1100
      7 C7        -11.0621   -2.4427   56.9721 C.3     1  ZINC001272744746   -0.1500
      8 C8        -12.4489   -3.0386   56.8508 C.2     1  ZINC001272744746    0.5200
      9 O9        -12.8026   -3.8034   55.9785 O.2     1  ZINC001272744746   -0.5200
     10 C10       -10.4181   -2.9346   59.3548 C.3     1  ZINC001272744746   -0.1000
     11 C11       -10.4036   -2.3742   60.7811 C.3     1  ZINC001272744746   -0.1200
     12 C12        -9.6297   -1.0529   60.7914 C.3     1  ZINC001272744746   -0.1200
     13 C13       -10.2873   -0.0708   59.8194 C.3     1  ZINC001272744746    0.0500
     14 N14       -10.2762   -0.6410   58.4646 N.3     1  ZINC001272744746   -0.5100
     15 C15       -10.8016    0.3195   57.4850 C.3     1  ZINC001272744746    0.0800
     16 C16        -9.7181    0.6760   56.5002 C.ar    1  ZINC001272744746   -0.0200
     17 C17        -8.5157    1.1859   56.9528 C.ar    1  ZINC001272744746   -0.1700
     18 C18        -7.5174    1.5150   56.0517 C.ar    1  ZINC001272744746    0.1200
     19 F19        -6.3429    2.0133   56.4962 F       1  ZINC001272744746   -0.1200
     20 C20        -7.7235    1.3323   54.6922 C.ar    1  ZINC001272744746    0.0400
     21 O21        -6.7440    1.6543   53.8047 O.3     1  ZINC001272744746   -0.4700
     22 C22        -8.9339    0.8185   54.2385 C.ar    1  ZINC001272744746    0.1300
     23 O23        -9.1406    0.6372   52.9067 O.3     1  ZINC001272744746   -0.3000
     24 C24       -10.4060    0.1023   52.5134 C.3     1  ZINC001272744746    0.0200
     25 C25        -9.9269    0.4869   55.1466 C.ar    1  ZINC001272744746   -0.1800
     26 H26       -17.0201   -3.6288   57.1355 H       1  ZINC001272744746    0.1000
     27 H27       -17.2832   -2.1707   55.9936 H       1  ZINC001272744746    0.1000
     28 H28       -15.1402   -1.3061   56.6039 H       1  ZINC001272744746    0.1100
     29 H29       -14.9517   -2.7208   59.0427 H       1  ZINC001272744746    0.0900
     30 H30       -14.7436   -4.0454   57.8721 H       1  ZINC001272744746    0.0800
     31 H31       -12.7809   -0.6395   58.5155 H       1  ZINC001272744746    0.0700
     32 H32       -12.7062   -1.9091   59.7738 H       1  ZINC001272744746    0.0900
     33 H33       -10.9255   -1.6343   56.2538 H       1  ZINC001272744746    0.1100
     34 H34       -10.3045   -3.2134   56.8297 H       1  ZINC001272744746    0.1100
     35 H35       -11.0211   -3.8421   59.3267 H       1  ZINC001272744746    0.0700
     36 H36        -9.3990   -3.1649   59.0442 H       1  ZINC001272744746    0.0800
     37 H37       -11.4267   -2.2001   61.1148 H       1  ZINC001272744746    0.0600
     38 H38        -9.9177   -3.0865   61.4478 H       1  ZINC001272744746    0.0700
     39 H39        -9.6419   -0.6323   61.7969 H       1  ZINC001272744746    0.0700
     40 H40        -8.5993   -1.2328   60.4848 H       1  ZINC001272744746    0.0700
     41 H41       -11.3165    0.1119   60.1282 H       1  ZINC001272744746    0.0400
     42 H42        -9.7348    0.8687   59.8227 H       1  ZINC001272744746    0.0900
     43 H43       -11.6427   -0.1265   56.9541 H       1  ZINC001272744746    0.1000
     44 H44       -11.1341    1.2200   58.0013 H       1  ZINC001272744746    0.0600
     45 H45        -8.3549    1.3284   58.0112 H       1  ZINC001272744746    0.1400
     46 H46        -5.9474    2.0196   54.2134 H       1  ZINC001272744746    0.3900
     47 H47       -11.2015    0.7697   52.8450 H       1  ZINC001272744746    0.0600
     48 H48       -10.4394    0.0085   51.4280 H       1  ZINC001272744746    0.1100
     49 H49       -10.5425   -0.8792   52.9673 H       1  ZINC001272744746    0.0600
     50 H50       -10.8673    0.0879   54.7962 H       1  ZINC001272744746    0.1400
@<TRIPOS>BOND
     1     1     2    2
     2     1    26    1
     3     1    27    1
     4     2     3    1
     5     2    28    1
     6     3     4    1
     7     3    29    1
     8     3    30    1
     9     4     8   am
    10     4     5    1
    11     5     6    1
    12     5    31    1
    13     5    32    1
    14     6    14    1
    15     6     7    1
    16     6    10    1
    17     7     8    1
    18     7    33    1
    19     7    34    1
    20     8     9    2
    21    10    11    1
    22    10    35    1
    23    10    36    1
    24    11    12    1
    25    11    37    1
    26    11    38    1
    27    12    13    1
    28    12    39    1
    29    12    40    1
    30    13    14    1
    31    13    41    1
    32    13    42    1
    33    14    15    1
    34    15    16    1
    35    15    43    1
    36    15    44    1
    37    16    25   ar
    38    16    17   ar
    39    17    18   ar
    40    17    45    1
    41    18    19    1
    42    18    20   ar
    43    20    21    1
    44    20    22   ar
    45    21    46    1
    46    22    23    1
    47    22    25   ar
    48    23    24    1
    49    24    47    1
    50    24    48    1
    51    24    49    1
    52    25    50    1
@<TRIPOS>SUBSTRUCTURE
     1 ZINC001272744746        1 TEMP              0 ****  ****    0 ROOT


##########                                Name:    ZINC001173835973
##########                DOCK_Rotatable_Bonds:                   4
##########                         Heavy_Atoms:                  26
##########                    Molecular_Weight:             343.388
##########                DOCK_Rotatable_Bonds:                   4
##########                       Formal_Charge:           -0.010001
##########                     HBond_Acceptors:                   6
##########                        HBond_Donors:                   4
##########                         Heavy_Atoms:                  26
##########                          Grid_Score:          -26.106924
##########                     Grid_vdw_energy:          -25.297777
##########                      Grid_es_energy:           -0.809146
##########           Internal_energy_repulsive:            7.409322

@<TRIPOS>MOLECULE
ZINC001173835973
 43 46 1 0 0
SMALL
USER_CHARGES


@<TRIPOS>ATOM
      1 C1        -16.4219   -6.3696   50.7578 C.3     1  ZINC001173835973   -0.1700
      2 C2        -16.0197   -5.5803   51.9769 C.2     1  ZINC001173835973    0.5100
      3 O3        -14.9412   -5.7748   52.4967 O.2     1  ZINC001173835973   -0.5200
      4 N4        -16.8583   -4.6582   52.4897 N.am    1  ZINC001173835973   -0.6800
      5 C5        -16.4849   -3.9254   53.6217 C.ar    1  ZINC001173835973    0.1800
      6 C6        -16.4383   -2.5381   53.5676 C.ar    1  ZINC001173835973   -0.1900
      7 C7        -16.0697   -1.8132   54.6850 C.ar    1  ZINC001173835973   -0.0600
      8 C8        -15.7468   -2.4648   55.8592 C.ar    1  ZINC001173835973   -0.1900
      9 C9        -15.7914   -3.8530   55.9201 C.ar    1  ZINC001173835973    0.2200
     10 N10       -15.4648   -4.5113   57.1073 N.pl3   1  ZINC001173835973   -0.6900
     11 C11       -14.6561   -3.8787   58.0588 C.ar    1  ZINC001173835973    0.0400
     12 C12       -13.3195   -3.7403   57.8262 C.ar    1  ZINC001173835973    0.2400
     13 N13       -12.7668   -4.2319   56.6381 N.pl3   1  ZINC001173835973   -0.8600
     14 C14       -12.4614   -3.0835   58.8062 C.ar    1  ZINC001173835973   -0.1100
     15 C15       -11.0844   -2.9375   58.5721 C.ar    1  ZINC001173835973   -0.0600
     16 C16       -10.3275   -2.3127   59.5260 C.ar    1  ZINC001173835973   -0.1700
     17 C17       -10.9292   -1.8437   60.6877 C.ar    1  ZINC001173835973    0.1200
     18 N18       -12.2181   -1.9841   60.8991 N.ar    1  ZINC001173835973   -0.4400
     19 C19       -13.0064   -2.5827   60.0091 C.ar    1  ZINC001173835973    0.1900
     20 C20       -14.4449   -2.7316   60.2595 C.ar    1  ZINC001173835973    0.1300
     21 N21       -14.9925   -2.2715   61.3820 N.ar    1  ZINC001173835973   -0.4400
     22 C22       -16.2784   -2.3979   61.6190 C.ar    1  ZINC001173835973    0.1000
     23 C23       -17.1277   -3.0173   60.7101 C.ar    1  ZINC001173835973   -0.1500
     24 C24       -16.6252   -3.5116   59.5367 C.ar    1  ZINC001173835973   -0.0700
     25 C25       -15.2506   -3.3672   59.2891 C.ar    1  ZINC001173835973   -0.0400
     26 C26       -16.1663   -4.5834   54.8009 C.ar    1  ZINC001173835973   -0.1900
     27 H27       -15.6221   -7.0609   50.4924 H       1  ZINC001173835973    0.1000
     28 H28       -17.3312   -6.9310   50.9722 H       1  ZINC001173835973    0.0900
     29 H29       -16.6032   -5.6876   49.9271 H       1  ZINC001173835973    0.0900
     30 H30       -17.7208   -4.5026   52.0740 H       1  ZINC001173835973    0.4100
     31 H31       -16.6902   -2.0253   52.6510 H       1  ZINC001173835973    0.1200
     32 H32       -16.0337   -0.7347   54.6398 H       1  ZINC001173835973    0.1200
     33 H33       -15.4591   -1.8954   56.7306 H       1  ZINC001173835973    0.1200
     34 H34       -15.7984   -5.4070   57.2729 H       1  ZINC001173835973    0.4000
     35 H35       -13.3442   -4.5959   55.9489 H       1  ZINC001173835973    0.4100
     36 H36       -11.8064   -4.2085   56.5040 H       1  ZINC001173835973    0.4000
     37 H37       -10.6344   -3.3089   57.6632 H       1  ZINC001173835973    0.1400
     38 H38        -9.2654   -2.1849   59.3767 H       1  ZINC001173835973    0.1400
     39 H39       -10.3229   -1.3524   61.4343 H       1  ZINC001173835973    0.1700
     40 H40       -16.6850   -2.0116   62.5420 H       1  ZINC001173835973    0.1600
     41 H41       -18.1813   -3.1089   60.9291 H       1  ZINC001173835973    0.1400
     42 H42       -17.2698   -3.9964   58.8185 H       1  ZINC001173835973    0.1400
     43 H43       -16.2021   -5.6619   54.8455 H       1  ZINC001173835973    0.1400
@<TRIPOS>BOND
     1     1     2    1
     2     1    27    1
     3     1    28    1
     4     1    29    1
     5     2     3    2
     6     2     4   am
     7     4     5    1
     8     4    30    1
     9     5    26   ar
    10     5     6   ar
    11     6     7   ar
    12     6    31    1
    13     7     8   ar
    14     7    32    1
    15     8     9   ar
    16     8    33    1
    17     9    10    1
    18     9    26   ar
    19    10    11    1
    20    10    34    1
    21    11    25   ar
    22    11    12   ar
    23    12    13    1
    24    12    14   ar
    25    13    35    1
    26    13    36    1
    27    14    19   ar
    28    14    15   ar
    29    15    16   ar
    30    15    37    1
    31    16    17   ar
    32    16    38    1
    33    17    18   ar
    34    17    39    1
    35    18    19   ar
    36    19    20   ar
    37    20    25   ar
    38    20    21   ar
    39    21    22   ar
    40    22    23   ar
    41    22    40    1
    42    23    24   ar
    43    23    41    1
    44    24    25   ar
    45    24    42    1
    46    26    43    1
@<TRIPOS>SUBSTRUCTURE
     1 ZINC001173835973        1 TEMP              0 ****  ****    0 ROOT


##########                                Name:    ZINC000893400114
##########                DOCK_Rotatable_Bonds:                   6
##########                         Heavy_Atoms:                  27
##########                    Molecular_Weight:             381.472
##########                DOCK_Rotatable_Bonds:                   6
##########                       Formal_Charge:           0.0300001
##########                     HBond_Acceptors:                   8
##########                        HBond_Donors:                   1
##########                         Heavy_Atoms:                  27
##########                          Grid_Score:          -26.090338
##########                     Grid_vdw_energy:          -26.891424
##########                      Grid_es_energy:            0.801087
##########           Internal_energy_repulsive:           86.507759

@<TRIPOS>MOLECULE
ZINC000893400114
 58 61 1 0 0
SMALL
USER_CHARGES


@<TRIPOS>ATOM
      1 O1        -13.1175   -0.8069   61.7374 O.2     1  ZINC000893400114   -0.5600
      2 C2        -12.8735   -1.6937   60.9421 C.2     1  ZINC000893400114    0.7100
      3 N3        -13.8591   -2.2015   60.1758 N.am    1  ZINC000893400114   -0.7300
      4 C4        -15.2255   -1.6891   60.3053 C.3     1  ZINC000893400114    0.1400
      5 H5        -15.2297   -0.7537   60.8648 H       1  ZINC000893400114    0.1200
      6 C6        -16.1329   -2.7353   60.9932 C.3     1  ZINC000893400114   -0.1400
      7 C7        -16.7442   -3.4690   59.7789 C.3     1  ZINC000893400114    0.1000
      8 N8        -16.6993   -2.5034   58.6747 N.am    1  ZINC000893400114   -0.6200
      9 C9        -17.4802   -2.6218   57.4408 C.3     1  ZINC000893400114    0.1600
     10 C10       -18.4130   -1.4143   57.3068 C.3     1  ZINC000893400114   -0.1700
     11 C11       -19.1670   -1.5068   55.9775 C.3     1  ZINC000893400114    0.0700
     12 O12       -18.2279   -1.5680   54.9021 O.3     1  ZINC000893400114   -0.3800
     13 C13       -17.3601   -2.7024   54.9491 C.3     1  ZINC000893400114    0.0700
     14 C14       -16.5336   -2.6580   56.2370 C.3     1  ZINC000893400114   -0.1700
     15 C15       -15.8488   -1.4928   58.9410 C.2     1  ZINC000893400114    0.5100
     16 O16       -15.6181   -0.5643   58.1954 O.2     1  ZINC000893400114   -0.4900
     17 N17       -11.6165   -2.1651   60.8230 N.am    1  ZINC000893400114   -0.6300
     18 C18       -11.2960   -3.2337   59.8635 C.3     1  ZINC000893400114    0.0800
     19 C19       -10.0914   -2.7872   59.0271 C.3     1  ZINC000893400114    0.0500
     20 O20        -9.0357   -2.3815   59.9015 O.3     1  ZINC000893400114   -0.3800
     21 C21        -9.3570   -1.2578   60.7249 C.3     1  ZINC000893400114    0.0600
     22 C22       -10.5229   -1.6221   61.6443 C.3     1  ZINC000893400114    0.1400
     23 H23       -10.2019   -2.3759   62.3631 H       1  ZINC000893400114    0.0800
     24 C24       -11.0031   -0.3735   62.3868 C.3     1  ZINC000893400114   -0.1200
     25 C25        -9.8135    0.3011   63.0727 C.3     1  ZINC000893400114    0.0700
     26 H26        -8.9820    0.3848   62.3729 H       1  ZINC000893400114    0.0800
     27 C27        -9.3810   -0.5247   64.3034 C.3     1  ZINC000893400114   -0.1500
     28 C28        -9.0367    0.5812   65.3379 C.3     1  ZINC000893400114   -0.1600
     29 C29       -10.0789    1.6661   64.9667 C.3     1  ZINC000893400114    0.0500
     30 O30       -10.1931    1.6029   63.5343 O.3     1  ZINC000893400114   -0.3800
     31 H31       -13.6638   -2.9062   59.5385 H       1  ZINC000893400114    0.4000
     32 H32       -15.5451   -3.4184   61.6064 H       1  ZINC000893400114    0.1000
     33 H33       -16.9079   -2.2497   61.5862 H       1  ZINC000893400114    0.1000
     34 H34       -16.1517   -4.3504   59.5335 H       1  ZINC000893400114    0.0700
     35 H35       -17.7751   -3.7533   59.9899 H       1  ZINC000893400114    0.0800
     36 H36       -18.0695   -3.5383   57.4688 H       1  ZINC000893400114    0.0900
     37 H37       -19.1266   -1.4121   58.1308 H       1  ZINC000893400114    0.0800
     38 H38       -17.8260   -0.4962   57.3295 H       1  ZINC000893400114    0.0900
     39 H39       -19.7850   -2.4046   55.9719 H       1  ZINC000893400114    0.0500
     40 H40       -19.8007   -0.6282   55.8572 H       1  ZINC000893400114    0.1000
     41 H41       -17.9546   -3.6158   54.9300 H       1  ZINC000893400114    0.0500
     42 H42       -16.6923   -2.6851   54.0878 H       1  ZINC000893400114    0.1000
     43 H43       -15.9087   -1.7649   56.2381 H       1  ZINC000893400114    0.0900
     44 H44       -15.9031   -3.5451   56.2959 H       1  ZINC000893400114    0.0700
     45 H45       -11.0501   -4.1490   60.4020 H       1  ZINC000893400114    0.0800
     46 H46       -12.1511   -3.4097   59.2109 H       1  ZINC000893400114    0.0800
     47 H47        -9.7517   -3.6164   58.4065 H       1  ZINC000893400114    0.1100
     48 H48       -10.3798   -1.9500   58.3915 H       1  ZINC000893400114    0.0500
     49 H49        -8.4889   -0.9867   61.3257 H       1  ZINC000893400114    0.1300
     50 H50        -9.6426   -0.4150   60.0955 H       1  ZINC000893400114    0.0500
     51 H51       -11.4547    0.3199   61.6774 H       1  ZINC000893400114    0.0800
     52 H52       -11.7414   -0.6582   63.1366 H       1  ZINC000893400114    0.1100
     53 H53       -10.2012   -1.1477   64.6600 H       1  ZINC000893400114    0.0800
     54 H54        -8.5034   -1.1297   64.0756 H       1  ZINC000893400114    0.0800
     55 H55        -9.1860    0.2257   66.3574 H       1  ZINC000893400114    0.0800
     56 H56        -8.0201    0.9484   65.1968 H       1  ZINC000893400114    0.0800
     57 H57       -11.0385    1.4444   65.4336 H       1  ZINC000893400114    0.0600
     58 H58        -9.7262    2.6506   65.2742 H       1  ZINC000893400114    0.0800
@<TRIPOS>BOND
     1     1     2    2
     2     2     3   am
     3     2    17   am
     4     3     4    1
     5     3    31    1
     6     4     5    1
     7     4    15    1
     8     4     6    1
     9     6     7    1
    10     6    32    1
    11     6    33    1
    12     7     8    1
    13     7    34    1
    14     7    35    1
    15     8     9    1
    16     8    15   am
    17     9    14    1
    18     9    10    1
    19     9    36    1
    20    10    11    1
    21    10    37    1
    22    10    38    1
    23    11    12    1
    24    11    39    1
    25    11    40    1
    26    12    13    1
    27    13    14    1
    28    13    41    1
    29    13    42    1
    30    14    43    1
    31    14    44    1
    32    15    16    2
    33    17    22    1
    34    17    18    1
    35    18    19    1
    36    18    45    1
    37    18    46    1
    38    19    20    1
    39    19    47    1
    40    19    48    1
    41    20    21    1
    42    21    22    1
    43    21    49    1
    44    21    50    1
    45    22    23    1
    46    22    24    1
    47    24    25    1
    48    24    51    1
    49    24    52    1
    50    25    26    1
    51    25    30    1
    52    25    27    1
    53    27    28    1
    54    27    53    1
    55    27    54    1
    56    28    29    1
    57    28    55    1
    58    28    56    1
    59    29    30    1
    60    29    57    1
    61    29    58    1
@<TRIPOS>SUBSTRUCTURE
     1 ZINC000893400114        1 TEMP              0 ****  ****    0 ROOT


##########                                Name:    ZINC001039666729
##########                DOCK_Rotatable_Bonds:                   3
##########                         Heavy_Atoms:                  25
##########                    Molecular_Weight:             344.376
##########                DOCK_Rotatable_Bonds:                   3
##########                       Formal_Charge:          -0.0199998
##########                     HBond_Acceptors:                  10
##########                        HBond_Donors:                   2
##########                         Heavy_Atoms:                  25
##########                          Grid_Score:          -26.084063
##########                     Grid_vdw_energy:          -25.173723
##########                      Grid_es_energy:           -0.910339
##########           Internal_energy_repulsive:           23.113766

@<TRIPOS>MOLECULE
ZINC001039666729
 45 47 1 0 0
SMALL
USER_CHARGES


@<TRIPOS>ATOM
      1 C1          0.9411    3.7507   53.2357 C.3     1  ZINC001039666729   -0.1100
      2 C2          1.0369    2.8895   52.0026 C.ar    1  ZINC001039666729    0.2200
      3 C3          1.8751    1.7861   51.9813 C.ar    1  ZINC001039666729   -0.3000
      4 C4          1.9336    1.0206   50.8271 C.ar    1  ZINC001039666729    0.1900
      5 N5          1.1925    1.3640   49.7868 N.ar    1  ZINC001039666729   -0.5800
      6 C6          0.4012    2.4255   49.8400 C.ar    1  ZINC001039666729    0.6000
      7 N7         -0.3612    2.7560   48.7330 N.pl3   1  ZINC001039666729   -0.5900
      8 C8         -1.5588    3.6491   48.7861 C.3     1  ZINC001039666729    0.1200
      9 C9         -1.0634    5.0970   48.8017 C.3     1  ZINC001039666729    0.0900
     10 N10        -0.3368    5.3572   47.5341 N.am    1  ZINC001039666729   -0.7400
     11 C11         1.0259    5.2529   47.6300 C.2     1  ZINC001039666729    0.5200
     12 O12         1.5535    4.9684   48.6843 O.2     1  ZINC001039666729   -0.5200
     13 C13         1.8546    5.4993   46.3955 C.3     1  ZINC001039666729   -0.1500
     14 C14         2.6463    4.2359   46.0520 C.3     1  ZINC001039666729    0.1100
     15 N15         1.6878    3.1122   45.8898 N.am    1  ZINC001039666729   -0.6100
     16 C16         1.0961    2.8246   44.7135 C.2     1  ZINC001039666729    0.6100
     17 O17         1.3407    3.4956   43.7299 O.2     1  ZINC001039666729   -0.5200
     18 C18         0.1498    1.6930   44.6195 C.2     1  ZINC001039666729   -0.0400
     19 N19        -1.1497    1.7536   44.3712 N.2     1  ZINC001039666729   -0.2500
     20 N20        -1.6218    0.5576   44.3709 N.pl3   1  ZINC001039666729   -0.2300
     21 N21        -0.6986   -0.3045   44.6079 N.2     1  ZINC001039666729   -0.2800
     22 C22         0.4417    0.3225   44.7693 C.2     1  ZINC001039666729    0.0400
     23 C23         1.4341    2.3306   47.1278 C.3     1  ZINC001039666729    0.1100
     24 C24        -0.0746    2.2642   47.3507 C.3     1  ZINC001039666729    0.1300
     25 N25         0.3180    3.1748   50.9293 N.ar    1  ZINC001039666729   -0.5700
     26 H26         0.1555    3.3671   53.8866 H       1  ZINC001039666729    0.0800
     27 H27         1.8932    3.7332   53.7661 H       1  ZINC001039666729    0.0800
     28 H28         0.7053    4.7748   52.9462 H       1  ZINC001039666729    0.0800
     29 H29         2.4699    1.5284   52.8451 H       1  ZINC001039666729    0.1400
     30 H30         2.5769    0.1545   50.7777 H       1  ZINC001039666729    0.1600
     31 H31        -2.1828    3.4822   47.9082 H       1  ZINC001039666729    0.0800
     32 H32        -2.1314    3.4452   49.6909 H       1  ZINC001039666729    0.0900
     33 H33        -1.9131    5.7747   48.8836 H       1  ZINC001039666729    0.0800
     34 H34        -0.3917    5.2460   49.6472 H       1  ZINC001039666729    0.1000
     35 H35        -0.7893    5.5825   46.7061 H       1  ZINC001039666729    0.4100
     36 H36         1.1990    5.7548   45.5630 H       1  ZINC001039666729    0.0800
     37 H37         2.5452    6.3221   46.5798 H       1  ZINC001039666729    0.1100
     38 H38         3.1949    4.3878   45.1225 H       1  ZINC001039666729    0.1100
     39 H39         3.3444    4.0096   46.8581 H       1  ZINC001039666729    0.0900
     40 H40        -2.5526    0.3352   44.2131 H       1  ZINC001039666729    0.4700
     41 H41         1.4043   -0.1193   44.9806 H       1  ZINC001039666729    0.2100
     42 H42         1.8362    1.3237   47.0153 H       1  ZINC001039666729    0.0800
     43 H43         1.9084    2.8232   47.9767 H       1  ZINC001039666729    0.1200
     44 H44        -0.4171    1.2342   47.2518 H       1  ZINC001039666729    0.0700
     45 H45        -0.5832    2.8945   46.6212 H       1  ZINC001039666729    0.0900
@<TRIPOS>BOND
     1     1     2    1
     2     1    26    1
     3     1    27    1
     4     1    28    1
     5     2    25   ar
     6     2     3   ar
     7     3     4   ar
     8     3    29    1
     9     4     5   ar
    10     4    30    1
    11     5     6   ar
    12     6     7    1
    13     6    25   ar
    14     7    24    1
    15     7     8    1
    16     8     9    1
    17     8    31    1
    18     8    32    1
    19     9    10    1
    20     9    33    1
    21     9    34    1
    22    10    11   am
    23    10    35    1
    24    11    12    2
    25    11    13    1
    26    13    14    1
    27    13    36    1
    28    13    37    1
    29    14    15    1
    30    14    38    1
    31    14    39    1
    32    15    16   am
    33    15    23    1
    34    16    17    2
    35    16    18    1
    36    18    22    1
    37    18    19    2
    38    19    20    1
    39    20    21    1
    40    20    40    1
    41    21    22    2
    42    22    41    1
    43    23    24    1
    44    23    42    1
    45    23    43    1
    46    24    44    1
    47    24    45    1
@<TRIPOS>SUBSTRUCTURE
     1 ZINC001039666729        1 TEMP              0 ****  ****    0 ROOT


##########                                Name:    ZINC000518234532
##########                DOCK_Rotatable_Bonds:                   5
##########                         Heavy_Atoms:                  25
##########                    Molecular_Weight:             408.267
##########                DOCK_Rotatable_Bonds:                   5
##########                       Formal_Charge:         -0.00999981
##########                     HBond_Acceptors:                   5
##########                        HBond_Donors:                   1
##########                         Heavy_Atoms:                  25
##########                          Grid_Score:          -26.073221
##########                     Grid_vdw_energy:          -25.490038
##########                      Grid_es_energy:           -0.583183
##########           Internal_energy_repulsive:           21.469849

@<TRIPOS>MOLECULE
ZINC000518234532
 44 46 1 0 0
SMALL
USER_CHARGES


@<TRIPOS>ATOM
      1 C1        -15.8026   -4.1383   58.5268 C.3     1  ZINC000518234532   -0.1600
      2 C2        -15.0774   -3.4579   57.3639 C.3     1  ZINC000518234532    0.1800
      3 H3        -15.2917   -2.3892   57.3775 H       1  ZINC000518234532    0.1100
      4 N4        -13.6339   -3.6683   57.4984 N.am    1  ZINC000518234532   -0.7300
      5 C5        -12.8219   -2.6240   57.7566 C.2     1  ZINC000518234532    0.5200
      6 O6        -13.2865   -1.5104   57.8790 O.2     1  ZINC000518234532   -0.5200
      7 C7        -11.3367   -2.8401   57.8931 C.3     1  ZINC000518234532   -0.0700
      8 H8        -11.0673   -3.8002   57.4529 H       1  ZINC000518234532    0.1100
      9 C9        -10.9543   -2.8328   59.3744 C.3     1  ZINC000518234532   -0.1400
     10 C10       -10.6007   -1.7359   57.1790 C.ar    1  ZINC000518234532   -0.1000
     11 C11        -9.6988   -0.9479   57.8682 C.ar    1  ZINC000518234532   -0.0600
     12 C12        -9.0234    0.0653   57.2132 C.ar    1  ZINC000518234532   -0.1300
     13 C13        -9.2498    0.2916   55.8685 C.ar    1  ZINC000518234532   -0.0900
     14 C14       -10.1520   -0.4950   55.1771 C.ar    1  ZINC000518234532   -0.1600
     15 C15       -10.8238   -1.5140   55.8304 C.ar    1  ZINC000518234532    0.1000
     16 F16       -11.7058   -2.2834   55.1556 F       1  ZINC000518234532   -0.1400
     17 C17       -15.5519   -4.0489   56.0614 C.ar    1  ZINC000518234532   -0.0600
     18 C18       -15.1950   -5.3391   55.7186 C.ar    1  ZINC000518234532   -0.1100
     19 C19       -15.6309   -5.8860   54.5208 C.ar    1  ZINC000518234532    0.0800
     20 C20       -16.4293   -5.1341   53.6674 C.ar    1  ZINC000518234532    0.0600
     21 C21       -16.7835   -3.8393   54.0161 C.ar    1  ZINC000518234532   -0.0800
     22 C22       -16.3489   -3.3010   55.2134 C.ar    1  ZINC000518234532   -0.0800
     23 Br23      -16.8344   -1.5357   55.6864 Br      1  ZINC000518234532   -0.0300
     24 O24       -16.8742   -5.6545   52.4910 O.3     1  ZINC000518234532   -0.3000
     25 C25       -16.1948   -6.8165   52.0034 C.3     1  ZINC000518234532    0.0200
     26 C26       -16.0295   -7.8012   53.1689 C.3     1  ZINC000518234532    0.0200
     27 O27       -15.2674   -7.1569   54.1954 O.3     1  ZINC000518234532   -0.3000
     28 H28       -15.4593   -3.7108   59.4690 H       1  ZINC000518234532    0.0700
     29 H29       -16.8765   -3.9818   58.4267 H       1  ZINC000518234532    0.0700
     30 H30       -15.5883   -5.2069   58.5132 H       1  ZINC000518234532    0.0600
     31 H31       -13.2624   -4.5591   57.4017 H       1  ZINC000518234532    0.4000
     32 H32       -11.4867   -3.6315   59.8911 H       1  ZINC000518234532    0.0700
     33 H33        -9.8801   -2.9890   59.4732 H       1  ZINC000518234532    0.0700
     34 H34       -11.2238   -1.8727   59.8147 H       1  ZINC000518234532    0.0700
     35 H35        -9.5216   -1.1234   58.9190 H       1  ZINC000518234532    0.1300
     36 H36        -8.3187    0.6805   57.7527 H       1  ZINC000518234532    0.1300
     37 H37        -8.7220    1.0835   55.3580 H       1  ZINC000518234532    0.1300
     38 H38       -10.3292   -0.3175   54.1267 H       1  ZINC000518234532    0.1400
     39 H39       -14.5756   -5.9223   56.3840 H       1  ZINC000518234532    0.1400
     40 H40       -17.4020   -3.2521   53.3536 H       1  ZINC000518234532    0.1500
     41 H41       -16.7822   -7.2802   51.2108 H       1  ZINC000518234532    0.1300
     42 H42       -15.2148   -6.5348   51.6184 H       1  ZINC000518234532    0.0800
     43 H43       -17.0094   -8.0782   53.5578 H       1  ZINC000518234532    0.0800
     44 H44       -15.5044   -8.6924   52.8255 H       1  ZINC000518234532    0.1300
@<TRIPOS>BOND
     1     1     2    1
     2     1    28    1
     3     1    29    1
     4     1    30    1
     5     2     3    1
     6     2     4    1
     7     2    17    1
     8     4     5   am
     9     4    31    1
    10     5     6    2
    11     5     7    1
    12     7     8    1
    13     7     9    1
    14     7    10    1
    15     9    32    1
    16     9    33    1
    17     9    34    1
    18    10    15   ar
    19    10    11   ar
    20    11    12   ar
    21    11    35    1
    22    12    13   ar
    23    12    36    1
    24    13    14   ar
    25    13    37    1
    26    14    15   ar
    27    14    38    1
    28    15    16    1
    29    17    22   ar
    30    17    18   ar
    31    18    19   ar
    32    18    39    1
    33    19    27    1
    34    19    20   ar
    35    20    21   ar
    36    20    24    1
    37    21    22   ar
    38    21    40    1
    39    22    23    1
    40    24    25    1
    41    25    26    1
    42    25    41    1
    43    25    42    1
    44    26    27    1
    45    26    43    1
    46    26    44    1
@<TRIPOS>SUBSTRUCTURE
     1 ZINC000518234532        1 TEMP              0 ****  ****    0 ROOT


##########                                Name:    ZINC000560467340
##########                DOCK_Rotatable_Bonds:                   7
##########                         Heavy_Atoms:                  24
##########                    Molecular_Weight:             369.481
##########                DOCK_Rotatable_Bonds:                   7
##########                       Formal_Charge:          -0.0199997
##########                     HBond_Acceptors:                   7
##########                        HBond_Donors:                   2
##########                         Heavy_Atoms:                  24
##########                          Grid_Score:          -26.057854
##########                     Grid_vdw_energy:          -24.601904
##########                      Grid_es_energy:           -1.455949
##########           Internal_energy_repulsive:           19.187458

@<TRIPOS>MOLECULE
ZINC000560467340
 44 46 1 0 0
SMALL
USER_CHARGES


@<TRIPOS>ATOM
      1 O1        -15.0552   -0.6240   63.0587 O.2     1  ZINC000560467340   -0.9600
      2 S2        -15.1849   -0.3303   61.6744 S.o2    1  ZINC000560467340    2.7100
      3 O3        -15.8619    0.8186   61.1837 O.2     1  ZINC000560467340   -0.9500
      4 N4        -13.6467   -0.2630   61.0646 N.am    1  ZINC000560467340   -1.0900
      5 C5        -12.7272   -1.3847   61.2708 C.3     1  ZINC000560467340    0.1400
      6 C6        -11.4471   -1.1494   60.4665 C.3     1  ZINC000560467340   -0.0500
      7 C7        -10.7950    0.1671   60.8933 C.3     1  ZINC000560467340   -0.0700
      8 C8        -10.5435    0.1446   62.3791 C.ar    1  ZINC000560467340   -0.0900
      9 C9        -11.5070    0.6180   63.2500 C.ar    1  ZINC000560467340   -0.0900
     10 C10       -11.2774    0.5978   64.6126 C.ar    1  ZINC000560467340   -0.1500
     11 C11       -10.0819    0.1028   65.1055 C.ar    1  ZINC000560467340    0.1000
     12 F12        -9.8566    0.0821   66.4373 F       1  ZINC000560467340   -0.1400
     13 C13        -9.1178   -0.3716   64.2323 C.ar    1  ZINC000560467340   -0.1500
     14 C14        -9.3516   -0.3548   62.8702 C.ar    1  ZINC000560467340   -0.0900
     15 C15       -11.7693   -1.1162   58.9583 C.3     1  ZINC000560467340   -0.1300
     16 C16       -10.5570   -1.8161   58.2954 C.3     1  ZINC000560467340   -0.1200
     17 C17       -10.2290   -2.9520   59.2959 C.3     1  ZINC000560467340   -0.1600
     18 C18       -10.4679   -2.3167   60.6812 C.3     1  ZINC000560467340    0.1100
     19 H19        -9.5276   -1.9451   61.0886 H       1  ZINC000560467340    0.0600
     20 O20       -11.0392   -3.2794   61.5693 O.3     1  ZINC000560467340   -0.5500
     21 C21       -15.9756   -1.7243   60.9422 C.2     1  ZINC000560467340   -0.6900
     22 C22       -15.8510   -2.9589   61.4316 C.2     1  ZINC000560467340   -0.1000
     23 S23       -16.7767   -4.0815   60.4435 S.3     1  ZINC000560467340    0.1500
     24 C24       -17.2963   -2.7723   59.3901 C.2     1  ZINC000560467340   -0.2200
     25 C25       -16.7780   -1.6205   59.8190 C.2     1  ZINC000560467340   -0.0700
     26 H26       -13.3546    0.5191   60.5709 H       1  ZINC000560467340    0.4200
     27 H27       -12.4817   -1.4633   62.3299 H       1  ZINC000560467340    0.0600
     28 H28       -13.2007   -2.3085   60.9382 H       1  ZINC000560467340    0.0800
     29 H29        -9.8489    0.2915   60.3665 H       1  ZINC000560467340    0.0800
     30 H30       -11.4584    0.9969   60.6498 H       1  ZINC000560467340    0.0800
     31 H31       -12.4393    1.0041   62.8653 H       1  ZINC000560467340    0.1300
     32 H32       -12.0300    0.9684   65.2928 H       1  ZINC000560467340    0.1400
     33 H33        -8.1848   -0.7577   64.6155 H       1  ZINC000560467340    0.1400
     34 H34        -8.5998   -0.7251   62.1889 H       1  ZINC000560467340    0.1300
     35 H35       -12.6872   -1.6667   58.7520 H       1  ZINC000560467340    0.0700
     36 H36       -11.8538   -0.0872   58.6087 H       1  ZINC000560467340    0.0800
     37 H37       -10.8312   -2.2250   57.3229 H       1  ZINC000560467340    0.0700
     38 H38        -9.7167   -1.1280   58.2031 H       1  ZINC000560467340    0.0700
     39 H39       -10.8981   -3.7989   59.1441 H       1  ZINC000560467340    0.0800
     40 H40        -9.1893   -3.2628   59.1928 H       1  ZINC000560467340    0.0700
     41 H41       -10.4269   -3.9772   61.8397 H       1  ZINC000560467340    0.3800
     42 H42       -15.2702   -3.2282   62.3015 H       1  ZINC000560467340    0.1800
     43 H43       -17.9404   -2.8833   58.5303 H       1  ZINC000560467340    0.1700
     44 H44       -16.9638   -0.6794   59.3229 H       1  ZINC000560467340    0.1500
@<TRIPOS>BOND
     1     1     2    2
     2     2     3    2
     3     2     4   am
     4     2    21    1
     5     4     5    1
     6     4    26    1
     7     5     6    1
     8     5    27    1
     9     5    28    1
    10     6    18    1
    11     6     7    1
    12     6    15    1
    13     7     8    1
    14     7    29    1
    15     7    30    1
    16     8    14   ar
    17     8     9   ar
    18     9    10   ar
    19     9    31    1
    20    10    11   ar
    21    10    32    1
    22    11    12    1
    23    11    13   ar
    24    13    14   ar
    25    13    33    1
    26    14    34    1
    27    15    16    1
    28    15    35    1
    29    15    36    1
    30    16    17    1
    31    16    37    1
    32    16    38    1
    33    17    18    1
    34    17    39    1
    35    17    40    1
    36    18    19    1
    37    18    20    1
    38    20    41    1
    39    21    25    1
    40    21    22    2
    41    22    23    1
    42    22    42    1
    43    23    24    1
    44    24    25    2
    45    24    43    1
    46    25    44    1
@<TRIPOS>SUBSTRUCTURE
     1 ZINC000560467340        1 TEMP              0 ****  ****    0 ROOT


##########                                Name:    ZINC000375477402
##########                DOCK_Rotatable_Bonds:                   5
##########                         Heavy_Atoms:                  26
##########                    Molecular_Weight:             378.342
##########                DOCK_Rotatable_Bonds:                   5
##########                       Formal_Charge:         -1.2666e-07
##########                     HBond_Acceptors:                   9
##########                        HBond_Donors:                   1
##########                         Heavy_Atoms:                  26
##########                          Grid_Score:          -26.052305
##########                     Grid_vdw_energy:          -26.814545
##########                      Grid_es_energy:            0.762240
##########           Internal_energy_repulsive:           11.982054

@<TRIPOS>MOLECULE
ZINC000375477402
 45 47 1 0 0
SMALL
USER_CHARGES


@<TRIPOS>ATOM
      1 O1         -9.0705    1.4150   56.6095 O.2     1  ZINC000375477402   -0.5600
      2 C2         -9.8315    0.5684   56.1821 C.2     1  ZINC000375477402    0.7200
      3 N3        -10.3273    0.6766   54.9335 N.am    1  ZINC000375477402   -0.7300
      4 C4         -9.9539    1.8173   54.0934 C.3     1  ZINC000375477402    0.1800
      5 H5         -9.9294    2.7227   54.6998 H       1  ZINC000375477402    0.1500
      6 C6         -8.5917    1.5762   53.4955 C.ar    1  ZINC000375477402   -0.1300
      7 C7         -7.6575    2.5946   53.4716 C.ar    1  ZINC000375477402   -0.0800
      8 C8         -6.4074    2.3751   52.9234 C.ar    1  ZINC000375477402   -0.0900
      9 C9         -6.0892    1.1369   52.3980 C.ar    1  ZINC000375477402   -0.1100
     10 C10        -7.0226    0.1152   52.4204 C.ar    1  ZINC000375477402    0.0800
     11 F11        -6.7124   -1.0955   51.9072 F       1  ZINC000375477402   -0.1200
     12 C12        -8.2742    0.3335   52.9754 C.ar    1  ZINC000375477402    0.1000
     13 F13        -9.1869   -0.6623   52.9983 F       1  ZINC000375477402   -0.1100
     14 C14       -10.9812    1.9824   52.9717 C.3     1  ZINC000375477402    0.4400
     15 F15       -12.1756    2.4808   53.5029 F       1  ZINC000375477402   -0.1600
     16 F16       -10.4876    2.8760   52.0151 F       1  ZINC000375477402   -0.1700
     17 F17       -11.2198    0.7414   52.3714 F       1  ZINC000375477402   -0.1800
     18 N18       -10.1749   -0.4809   56.9549 N.am    1  ZINC000375477402   -0.6300
     19 C19       -11.0801   -1.5776   56.5632 C.3     1  ZINC000375477402    0.1000
     20 C20       -10.6762   -2.7702   57.4676 C.3     1  ZINC000375477402   -0.1200
     21 C21       -10.3292   -2.0510   58.7902 C.3     1  ZINC000375477402   -0.1100
     22 C22        -9.7040   -0.7262   58.3278 C.3     1  ZINC000375477402    0.1400
     23 C23       -11.5946   -1.8024   59.6015 C.3     1  ZINC000375477402   -0.1100
     24 C24       -11.2163   -1.1475   60.9352 C.3     1  ZINC000375477402   -0.1600
     25 C25       -10.1999   -2.0357   61.6577 C.3     1  ZINC000375477402    0.0600
     26 O26        -9.0493   -2.2155   60.8293 O.3     1  ZINC000375477402   -0.3800
     27 C27        -9.3226   -2.8698   59.5871 C.3     1  ZINC000375477402    0.0800
     28 H28       -10.9312   -0.0009   54.5911 H       1  ZINC000375477402    0.4000
     29 H29        -7.9044    3.5628   53.8813 H       1  ZINC000375477402    0.1400
     30 H30        -5.6787    3.1721   52.9053 H       1  ZINC000375477402    0.1500
     31 H31        -5.1125    0.9668   51.9698 H       1  ZINC000375477402    0.1500
     32 H32       -12.1173   -1.2969   56.7468 H       1  ZINC000375477402    0.0700
     33 H33       -10.9353   -1.8319   55.5133 H       1  ZINC000375477402    0.0700
     34 H34       -11.5109   -3.4577   57.6038 H       1  ZINC000375477402    0.0900
     35 H35        -9.8063   -3.2890   57.0649 H       1  ZINC000375477402    0.0800
     36 H36        -8.6168   -0.8027   58.3452 H       1  ZINC000375477402    0.0800
     37 H37       -10.0319    0.0856   58.9770 H       1  ZINC000375477402    0.0700
     38 H38       -12.2592   -1.1406   59.0463 H       1  ZINC000375477402    0.0700
     39 H39       -12.0980   -2.7504   59.7911 H       1  ZINC000375477402    0.0700
     40 H40       -10.7765   -0.1678   60.7485 H       1  ZINC000375477402    0.0700
     41 H41       -12.1076   -1.0368   61.5527 H       1  ZINC000375477402    0.0800
     42 H42        -9.9034   -1.5615   62.5933 H       1  ZINC000375477402    0.1000
     43 H43       -10.6504   -3.0055   61.8689 H       1  ZINC000375477402    0.0500
     44 H44        -9.7333   -3.8606   59.7813 H       1  ZINC000375477402    0.0600
     45 H45        -8.3991   -2.9653   59.0161 H       1  ZINC000375477402    0.1000
@<TRIPOS>BOND
     1     1     2    2
     2     2     3   am
     3     2    18   am
     4     3     4    1
     5     3    28    1
     6     4     5    1
     7     4     6    1
     8     4    14    1
     9     6    12   ar
    10     6     7   ar
    11     7     8   ar
    12     7    29    1
    13     8     9   ar
    14     8    30    1
    15     9    10   ar
    16     9    31    1
    17    10    11    1
    18    10    12   ar
    19    12    13    1
    20    14    15    1
    21    14    16    1
    22    14    17    1
    23    18    22    1
    24    18    19    1
    25    19    20    1
    26    19    32    1
    27    19    33    1
    28    20    21    1
    29    20    34    1
    30    20    35    1
    31    21    27    1
    32    21    22    1
    33    21    23    1
    34    22    36    1
    35    22    37    1
    36    23    24    1
    37    23    38    1
    38    23    39    1
    39    24    25    1
    40    24    40    1
    41    24    41    1
    42    25    26    1
    43    25    42    1
    44    25    43    1
    45    26    27    1
    46    27    44    1
    47    27    45    1
@<TRIPOS>SUBSTRUCTURE
     1 ZINC000375477402        1 TEMP              0 ****  ****    0 ROOT


##########                                Name:    ZINC000626935317
##########                DOCK_Rotatable_Bonds:                   6
##########                         Heavy_Atoms:                  25
##########                    Molecular_Weight:             366.441
##########                DOCK_Rotatable_Bonds:                   6
##########                       Formal_Charge:          -0.0200006
##########                     HBond_Acceptors:                   9
##########                        HBond_Donors:                   2
##########                         Heavy_Atoms:                  25
##########                          Grid_Score:          -26.037363
##########                     Grid_vdw_energy:          -25.307909
##########                      Grid_es_energy:           -0.729454
##########           Internal_energy_repulsive:           10.852467

@<TRIPOS>MOLECULE
ZINC000626935317
 47 49 1 0 0
SMALL
USER_CHARGES


@<TRIPOS>ATOM
      1 C1        -11.7247    1.2060   66.5027 C.3     1  ZINC000626935317    0.0900
      2 N2        -11.4123    0.8926   65.1061 N.am    1  ZINC000626935317   -0.6200
      3 C3        -12.0977    1.3655   64.0510 C.2     1  ZINC000626935317    0.5200
      4 O4        -13.0593    2.1013   64.1206 O.2     1  ZINC000626935317   -0.5200
      5 C5        -11.4949    0.8468   62.7640 C.3     1  ZINC000626935317   -0.1500
      6 C6        -10.0982    0.3305   63.1807 C.3     1  ZINC000626935317   -0.1200
      7 H7         -9.3405    1.1022   63.0450 H       1  ZINC000626935317    0.1200
      8 C8         -9.7353   -0.9178   62.4184 C.2     1  ZINC000626935317    0.5300
      9 O9         -9.2260   -1.8547   62.9961 O.2     1  ZINC000626935317   -0.5200
     10 N10        -9.9766   -0.9930   61.0945 N.am    1  ZINC000626935317   -0.7100
     11 C11        -9.6222   -2.2058   60.3530 C.3     1  ZINC000626935317    0.1200
     12 C12       -10.8376   -3.0518   59.9386 C.3     1  ZINC000626935317   -0.1600
     13 C13       -10.8830   -2.2133   58.6503 C.3     1  ZINC000626935317    0.1200
     14 N14       -11.7008   -1.0033   58.7661 N.am    1  ZINC000626935317   -1.1100
     15 S15       -12.5742   -0.4667   57.4656 S.o2    1  ZINC000626935317    2.6100
     16 C16       -13.6988   -1.8367   57.0793 C.3     1  ZINC000626935317   -0.6700
     17 O17       -13.2997    0.6478   57.9665 O.2     1  ZINC000626935317   -0.9500
     18 O18       -11.6081   -0.3090   56.4356 O.2     1  ZINC000626935317   -0.9500
     19 C19        -9.3794   -1.9626   58.8541 C.3     1  ZINC000626935317   -0.1600
     20 C20       -10.3068    0.0268   64.6791 C.3     1  ZINC000626935317    0.2000
     21 H21       -10.5799   -1.0193   64.8175 H       1  ZINC000626935317    0.1100
     22 C22        -9.0548    0.3452   65.4549 C.ar    1  ZINC000626935317   -0.1600
     23 C23        -8.6489    1.6600   65.6237 C.ar    1  ZINC000626935317   -0.0500
     24 C24        -7.4905    1.9056   66.3454 C.ar    1  ZINC000626935317   -0.1700
     25 C25        -6.7843    0.8395   66.8687 C.ar    1  ZINC000626935317    0.1000
     26 N26        -7.2003   -0.3990   66.6882 N.ar    1  ZINC000626935317   -0.4800
     27 C27        -8.2996   -0.6696   66.0122 C.ar    1  ZINC000626935317    0.1200
     28 H28       -11.1798    2.1003   66.8050 H       1  ZINC000626935317    0.0600
     29 H29       -12.7958    1.3812   66.6049 H       1  ZINC000626935317    0.0800
     30 H30       -11.4312    0.3697   67.1372 H       1  ZINC000626935317    0.0700
     31 H31       -12.0979    0.0332   62.3611 H       1  ZINC000626935317    0.1100
     32 H32       -11.4021    1.6516   62.0347 H       1  ZINC000626935317    0.1200
     33 H33       -10.3850   -0.2441   60.6326 H       1  ZINC000626935317    0.4000
     34 H34        -8.8321   -2.7812   60.8355 H       1  ZINC000626935317    0.1100
     35 H35       -10.6009   -4.1020   59.7679 H       1  ZINC000626935317    0.1100
     36 H36       -11.7067   -2.9118   60.5815 H       1  ZINC000626935317    0.0800
     37 H37       -11.1129   -2.7958   57.7581 H       1  ZINC000626935317    0.1100
     38 H38       -11.7304   -0.5164   59.6046 H       1  ZINC000626935317    0.4100
     39 H39       -14.3347   -2.0389   57.9411 H       1  ZINC000626935317    0.1300
     40 H40       -14.3196   -1.5672   56.2248 H       1  ZINC000626935317    0.1300
     41 H41       -13.1176   -2.7272   56.8396 H       1  ZINC000626935317    0.1300
     42 H42        -9.0713   -0.9432   58.6214 H       1  ZINC000626935317    0.0900
     43 H43        -8.7441   -2.7150   58.3869 H       1  ZINC000626935317    0.1100
     44 H44        -9.2209    2.4735   65.2028 H       1  ZINC000626935317    0.1400
     45 H45        -7.1445    2.9176   66.4963 H       1  ZINC000626935317    0.1400
     46 H46        -5.8810    1.0223   67.4317 H       1  ZINC000626935317    0.1600
     47 H47        -8.6089   -1.6965   65.8851 H       1  ZINC000626935317    0.1500
@<TRIPOS>BOND
     1     1     2    1
     2     1    28    1
     3     1    29    1
     4     1    30    1
     5     2    20    1
     6     2     3   am
     7     3     4    2
     8     3     5    1
     9     5     6    1
    10     5    31    1
    11     5    32    1
    12     6     7    1
    13     6     8    1
    14     6    20    1
    15     8     9    2
    16     8    10   am
    17    10    11    1
    18    10    33    1
    19    11    19    1
    20    11    12    1
    21    11    34    1
    22    12    13    1
    23    12    35    1
    24    12    36    1
    25    13    14    1
    26    13    19    1
    27    13    37    1
    28    14    15   am
    29    14    38    1
    30    15    16    1
    31    15    17    2
    32    15    18    2
    33    16    39    1
    34    16    40    1
    35    16    41    1
    36    19    42    1
    37    19    43    1
    38    20    21    1
    39    20    22    1
    40    22    27   ar
    41    22    23   ar
    42    23    24   ar
    43    23    44    1
    44    24    25   ar
    45    24    45    1
    46    25    26   ar
    47    25    46    1
    48    26    27   ar
    49    27    47    1
@<TRIPOS>SUBSTRUCTURE
     1 ZINC000626935317        1 TEMP              0 ****  ****    0 ROOT


##########                                Name:    ZINC000002634904
##########                DOCK_Rotatable_Bonds:                   7
##########                         Heavy_Atoms:                  31
##########                    Molecular_Weight:             423.498
##########                DOCK_Rotatable_Bonds:                   7
##########                       Formal_Charge:        -7.45058e-08
##########                     HBond_Acceptors:                   7
##########                        HBond_Donors:                   1
##########                         Heavy_Atoms:                  31
##########                          Grid_Score:          -26.023531
##########                     Grid_vdw_energy:          -25.132687
##########                      Grid_es_energy:           -0.890845
##########           Internal_energy_repulsive:          169.672180

@<TRIPOS>MOLECULE
ZINC000002634904
 48 51 1 0 0
SMALL
USER_CHARGES


@<TRIPOS>ATOM
      1 N1        -20.1861    0.0399   61.0013 N.1     1  ZINC000002634904   -0.4100
      2 C2        -19.3867   -0.6248   60.5435 C.1     1  ZINC000002634904    0.2500
      3 C3        -18.3790   -1.4627   59.9664 C.ar    1  ZINC000002634904   -0.0400
      4 C4        -17.4203   -2.0693   60.7828 C.ar    1  ZINC000002634904   -0.0500
      5 C5        -16.4527   -2.8743   60.2245 C.ar    1  ZINC000002634904   -0.1400
      6 C6        -16.4287   -3.0841   58.8496 C.ar    1  ZINC000002634904    0.1700
      7 N7        -15.4466   -3.9007   58.2872 N.am    1  ZINC000002634904   -0.6700
      8 C8        -15.4211   -4.1043   56.9552 C.2     1  ZINC000002634904    0.5400
      9 O9        -16.2516   -3.5779   56.2452 O.2     1  ZINC000002634904   -0.5000
     10 C10       -14.3605   -4.9861   56.3480 C.3     1  ZINC000002634904   -0.1700
     11 S11       -13.0162   -3.9582   55.7058 S.3     1  ZINC000002634904    0.1300
     12 C12       -12.4209   -3.2586   57.2094 C.ar    1  ZINC000002634904    0.2100
     13 N13       -11.9963   -4.0598   58.1801 N.ar    1  ZINC000002634904   -0.2900
     14 N14       -11.5533   -3.5934   59.2947 N.ar    1  ZINC000002634904   -0.1600
     15 C15       -11.5087   -2.2822   59.5058 C.ar    1  ZINC000002634904    0.0600
     16 C16       -10.9986   -1.7434   60.7883 C.ar    1  ZINC000002634904   -0.0500
     17 C17        -9.6355   -1.7974   61.0775 C.ar    1  ZINC000002634904   -0.0800
     18 C18        -9.1663   -1.2940   62.2736 C.ar    1  ZINC000002634904   -0.1200
     19 C19       -10.0454   -0.7370   63.1851 C.ar    1  ZINC000002634904   -0.1000
     20 C20       -11.3986   -0.6808   62.9038 C.ar    1  ZINC000002634904   -0.1200
     21 C21       -11.8789   -1.1753   61.7084 C.ar    1  ZINC000002634904   -0.0800
     22 C22       -11.9539   -1.4122   58.4903 C.ar    1  ZINC000002634904    0.2300
     23 C23       -11.9220    0.0564   58.6833 C.ar    1  ZINC000002634904   -0.0700
     24 C24       -13.1106    0.7671   58.8465 C.ar    1  ZINC000002634904   -0.0700
     25 C25       -13.0744    2.1347   59.0263 C.ar    1  ZINC000002634904   -0.1200
     26 C26       -11.8621    2.8008   59.0448 C.ar    1  ZINC000002634904   -0.0900
     27 C27       -10.6796    2.1014   58.8830 C.ar    1  ZINC000002634904   -0.1200
     28 C28       -10.7027    0.7328   58.7082 C.ar    1  ZINC000002634904   -0.0700
     29 N29       -12.3988   -1.9394   57.3521 N.ar    1  ZINC000002634904   -0.4400
     30 C30       -17.3814   -2.4824   58.0339 C.ar    1  ZINC000002634904   -0.1200
     31 C31       -18.3551   -1.6804   58.5859 C.ar    1  ZINC000002634904   -0.0500
     32 H32       -17.4382   -1.9064   61.8504 H       1  ZINC000002634904    0.1400
     33 H33       -15.7115   -3.3431   60.8547 H       1  ZINC000002634904    0.1400
     34 H34       -14.7823   -4.3215   58.8550 H       1  ZINC000002634904    0.4200
     35 H35       -13.9698   -5.6613   57.1092 H       1  ZINC000002634904    0.1300
     36 H36       -14.7937   -5.5677   55.5343 H       1  ZINC000002634904    0.1300
     37 H37        -8.9484   -2.2325   60.3669 H       1  ZINC000002634904    0.1300
     38 H38        -8.1109   -1.3351   62.4986 H       1  ZINC000002634904    0.1300
     39 H39        -9.6736   -0.3449   64.1202 H       1  ZINC000002634904    0.1300
     40 H40       -12.0801   -0.2448   63.6194 H       1  ZINC000002634904    0.1300
     41 H41       -12.9356   -1.1305   61.4898 H       1  ZINC000002634904    0.1200
     42 H42       -14.0577    0.2481   58.8319 H       1  ZINC000002634904    0.1300
     43 H43       -13.9944    2.6862   59.1525 H       1  ZINC000002634904    0.1300
     44 H44       -11.8388    3.8713   59.1859 H       1  ZINC000002634904    0.1300
     45 H45        -9.7362    2.6269   58.8980 H       1  ZINC000002634904    0.1300
     46 H46        -9.7789    0.1878   58.5819 H       1  ZINC000002634904    0.1300
     47 H47       -17.3598   -2.6479   56.9669 H       1  ZINC000002634904    0.1500
     48 H48       -19.0947   -1.2139   57.9522 H       1  ZINC000002634904    0.1400
@<TRIPOS>BOND
     1     1     2    3
     2     2     3    1
     3     3    31   ar
     4     3     4   ar
     5     4     5   ar
     6     4    32    1
     7     5     6   ar
     8     5    33    1
     9     6     7    1
    10     6    30   ar
    11     7     8   am
    12     7    34    1
    13     8     9    2
    14     8    10    1
    15    10    11    1
    16    10    35    1
    17    10    36    1
    18    11    12    1
    19    12    29   ar
    20    12    13   ar
    21    13    14   ar
    22    14    15   ar
    23    15    16    1
    24    15    22   ar
    25    16    21   ar
    26    16    17   ar
    27    17    18   ar
    28    17    37    1
    29    18    19   ar
    30    18    38    1
    31    19    20   ar
    32    19    39    1
    33    20    21   ar
    34    20    40    1
    35    21    41    1
    36    22    23    1
    37    22    29   ar
    38    23    28   ar
    39    23    24   ar
    40    24    25   ar
    41    24    42    1
    42    25    26   ar
    43    25    43    1
    44    26    27   ar
    45    26    44    1
    46    27    28   ar
    47    27    45    1
    48    28    46    1
    49    30    31   ar
    50    30    47    1
    51    31    48    1
@<TRIPOS>SUBSTRUCTURE
     1 ZINC000002634904        1 TEMP              0 ****  ****    0 ROOT


##########                                Name:    ZINC000426607143
##########                DOCK_Rotatable_Bonds:                   3
##########                         Heavy_Atoms:                  25
##########                    Molecular_Weight:             419.302
##########                DOCK_Rotatable_Bonds:                   3
##########                       Formal_Charge:         1.49012e-07
##########                     HBond_Acceptors:                   7
##########                        HBond_Donors:                   0
##########                         Heavy_Atoms:                  25
##########                          Grid_Score:          -25.995043
##########                     Grid_vdw_energy:          -25.991156
##########                      Grid_es_energy:           -0.003887
##########           Internal_energy_repulsive:           18.709793

@<TRIPOS>MOLECULE
ZINC000426607143
 40 43 1 0 0
SMALL
USER_CHARGES


@<TRIPOS>ATOM
      1 C1         -6.7796    3.1440   55.0183 C.3     1  ZINC000426607143   -0.0900
      2 C2         -7.5057    2.3635   53.9530 C.2     1  ZINC000426607143    0.1600
      3 N3         -7.3509    2.6284   52.6919 N.2     1  ZINC000426607143   -0.4600
      4 S4         -8.3232    1.5468   51.8207 S.3     1  ZINC000426607143    0.2900
      5 C5         -8.9480    0.7235   53.1959 C.2     1  ZINC000426607143   -0.1300
      6 C6         -9.9256   -0.4234   53.2064 C.3     1  ZINC000426607143   -0.0800
      7 C7         -8.3676    1.3233   54.2738 C.2     1  ZINC000426607143   -0.1200
      8 C8         -8.6411    0.9066   55.6707 C.2     1  ZINC000426607143    0.2500
      9 N9         -7.8590    1.0900   56.7033 N.2     1  ZINC000426607143   -0.3700
     10 O10        -8.3736    0.6331   57.7021 O.3     1  ZINC000426607143    0.0900
     11 C11        -9.5621    0.1000   57.4021 C.2     1  ZINC000426607143    0.2000
     12 C12       -10.5122   -0.5667   58.3632 C.3     1  ZINC000426607143   -0.0300
     13 H13       -11.5333   -0.5163   57.9854 H       1  ZINC000426607143    0.1600
     14 C14       -10.0960   -2.0365   58.6035 C.3     1  ZINC000426607143   -0.1200
     15 C15       -10.4349   -2.2192   60.0996 C.3     1  ZINC000426607143    0.1000
     16 N16       -10.3711   -0.8738   60.6827 N.am    1  ZINC000426607143   -0.5800
     17 C17       -10.2736   -0.6112   62.0540 C.ar    1  ZINC000426607143    0.1700
     18 C18        -9.0999   -0.9011   62.7361 C.ar    1  ZINC000426607143   -0.1000
     19 C19        -9.0067   -0.6408   64.0897 C.ar    1  ZINC000426607143   -0.1000
     20 C20       -10.0810   -0.0927   64.7656 C.ar    1  ZINC000426607143   -0.1000
     21 C21       -11.2521    0.1975   64.0896 C.ar    1  ZINC000426607143   -0.0900
     22 C22       -11.3498   -0.0546   62.7347 C.ar    1  ZINC000426607143   -0.0800
     23 Br23      -12.9514    0.3424   61.8109 Br      1  ZINC000426607143   -0.0400
     24 C24       -10.4207    0.0761   59.7296 C.2     1  ZINC000426607143    0.5300
     25 O25       -10.3923    1.2708   59.9373 O.2     1  ZINC000426607143   -0.4900
     26 N26        -9.7483    0.2707   56.1169 N.2     1  ZINC000426607143   -0.4600
     27 H27        -5.8213    2.6685   55.2274 H       1  ZINC000426607143    0.0900
     28 H28        -6.6112    4.1633   54.6707 H       1  ZINC000426607143    0.0800
     29 H29        -7.3810    3.1647   55.9271 H       1  ZINC000426607143    0.1100
     30 H30       -10.1997   -0.6766   52.1822 H       1  ZINC000426607143    0.0800
     31 H31        -9.4656   -1.2885   53.6838 H       1  ZINC000426607143    0.0900
     32 H32       -10.8186   -0.1345   53.7607 H       1  ZINC000426607143    0.0900
     33 H33       -10.6838   -2.7145   57.9848 H       1  ZINC000426607143    0.1100
     34 H34        -9.0295   -2.1739   58.4256 H       1  ZINC000426607143    0.1000
     35 H35       -11.4377   -2.6315   60.2115 H       1  ZINC000426607143    0.0900
     36 H36        -9.7027   -2.8716   60.5753 H       1  ZINC000426607143    0.0900
     37 H37        -8.2604   -1.3300   62.2092 H       1  ZINC000426607143    0.1400
     38 H38        -8.0937   -0.8663   64.6206 H       1  ZINC000426607143    0.1400
     39 H39       -10.0056    0.1090   65.8240 H       1  ZINC000426607143    0.1400
     40 H40       -12.0895    0.6257   64.6206 H       1  ZINC000426607143    0.1400
@<TRIPOS>BOND
     1     1     2    1
     2     1    27    1
     3     1    28    1
     4     1    29    1
     5     2     7    1
     6     2     3    2
     7     3     4    1
     8     4     5    1
     9     5     6    1
    10     5     7    2
    11     6    30    1
    12     6    31    1
    13     6    32    1
    14     7     8    1
    15     8    26    1
    16     8     9    2
    17     9    10    1
    18    10    11    1
    19    11    12    1
    20    11    26    2
    21    12    13    1
    22    12    24    1
    23    12    14    1
    24    14    15    1
    25    14    33    1
    26    14    34    1
    27    15    16    1
    28    15    35    1
    29    15    36    1
    30    16    17    1
    31    16    24   am
    32    17    22   ar
    33    17    18   ar
    34    18    19   ar
    35    18    37    1
    36    19    20   ar
    37    19    38    1
    38    20    21   ar
    39    20    39    1
    40    21    22   ar
    41    21    40    1
    42    22    23    1
    43    24    25    2
@<TRIPOS>SUBSTRUCTURE
     1 ZINC000426607143        1 TEMP              0 ****  ****    0 ROOT


##########                                Name:    ZINC000426567005
##########                DOCK_Rotatable_Bonds:                   9
##########                         Heavy_Atoms:                  31
##########                    Molecular_Weight:             417.467
##########                DOCK_Rotatable_Bonds:                   9
##########                       Formal_Charge:        -2.23517e-07
##########                     HBond_Acceptors:                   8
##########                        HBond_Donors:                   4
##########                         Heavy_Atoms:                  31
##########                          Grid_Score:          -25.990782
##########                     Grid_vdw_energy:          -26.097694
##########                      Grid_es_energy:            0.106913
##########           Internal_energy_repulsive:           12.568927

@<TRIPOS>MOLECULE
ZINC000426567005
 54 57 1 0 0
SMALL
USER_CHARGES


@<TRIPOS>ATOM
      1 O1         -4.1142    4.3754   53.5312 O.2     1  ZINC000426567005   -0.4900
      2 C2         -2.9617    3.9954   53.5585 C.2     1  ZINC000426567005    0.5200
      3 N3         -2.3242    3.8612   54.7384 N.am    1  ZINC000426567005   -0.6000
      4 C4         -2.9890    4.1655   55.9314 C.2     1  ZINC000426567005    0.3000
      5 N5         -4.2897    4.2437   56.0913 N.2     1  ZINC000426567005   -0.3100
      6 N6         -4.5462    4.5698   57.4292 N.pl3   1  ZINC000426567005   -0.4600
      7 C7         -3.3618    4.6848   58.0664 C.2     1  ZINC000426567005    0.1100
      8 C8         -3.1667    5.0242   59.5217 C.3     1  ZINC000426567005   -0.0300
      9 C9         -4.2962    4.4020   60.3797 C.3     1  ZINC000426567005   -0.1200
     10 C10        -3.6478    4.3097   61.7832 C.3     1  ZINC000426567005   -0.1300
     11 C11        -2.1838    3.9155   61.4986 C.3     1  ZINC000426567005   -0.1300
     12 C12        -1.8778    4.3697   60.0607 C.3     1  ZINC000426567005   -0.1200
     13 C13        -2.3817    4.4349   57.1691 C.2     1  ZINC000426567005   -0.2600
     14 C14        -2.2525    3.6708   52.2860 C.2     1  ZINC000426567005    0.5200
     15 O15        -1.0485    3.5171   52.2843 O.2     1  ZINC000426567005   -0.4900
     16 N16        -2.9490    3.5486   51.1386 N.am    1  ZINC000426567005   -0.6400
     17 C17        -2.2873    3.2457   49.9512 C.ar    1  ZINC000426567005    0.1700
     18 C18        -1.6685    4.2578   49.2234 C.ar    1  ZINC000426567005   -0.1300
     19 C19        -1.0135    3.9618   48.0493 C.ar    1  ZINC000426567005   -0.0300
     20 C20        -0.9700    2.6429   47.5886 C.ar    1  ZINC000426567005   -0.1500
     21 C21        -0.2683    2.3218   46.3307 C.2     1  ZINC000426567005    0.5600
     22 O22        -0.6870    2.7534   45.2738 O.2     1  ZINC000426567005   -0.5100
     23 N23         0.8365    1.5502   46.3533 N.am    1  ZINC000426567005   -0.6700
     24 C24         1.5014    1.2460   45.1612 C.ar    1  ZINC000426567005    0.1400
     25 C25         0.9017    0.4171   44.2218 C.ar    1  ZINC000426567005   -0.1500
     26 C26         1.5608    0.1190   43.0453 C.ar    1  ZINC000426567005   -0.1000
     27 C27         2.8165    0.6448   42.8022 C.ar    1  ZINC000426567005   -0.1300
     28 C28         3.4165    1.4700   43.7355 C.ar    1  ZINC000426567005   -0.1000
     29 C29         2.7604    1.7767   44.9115 C.ar    1  ZINC000426567005   -0.1200
     30 C30        -1.5919    1.6287   48.3221 C.ar    1  ZINC000426567005   -0.0600
     31 C31        -2.2411    1.9306   49.4979 C.ar    1  ZINC000426567005   -0.1400
     32 H32        -1.4045    3.5535   54.7605 H       1  ZINC000426567005    0.4300
     33 H33        -5.4220    4.6917   57.8281 H       1  ZINC000426567005    0.4400
     34 H34        -3.1319    6.1050   59.6590 H       1  ZINC000426567005    0.1100
     35 H35        -5.1697    5.0536   60.3997 H       1  ZINC000426567005    0.0800
     36 H36        -4.5604    3.4111   60.0104 H       1  ZINC000426567005    0.0700
     37 H37        -3.6917    5.2748   62.2880 H       1  ZINC000426567005    0.0700
     38 H38        -4.1401    3.5427   62.3812 H       1  ZINC000426567005    0.0700
     39 H39        -1.5183    4.4199   62.1991 H       1  ZINC000426567005    0.0700
     40 H40        -2.0650    2.8352   61.5821 H       1  ZINC000426567005    0.0700
     41 H41        -1.6107    3.5099   59.4463 H       1  ZINC000426567005    0.0600
     42 H42        -1.0639    5.0947   60.0632 H       1  ZINC000426567005    0.0700
     43 H43        -1.3202    4.4472   57.3670 H       1  ZINC000426567005    0.1700
     44 H44        -3.9112    3.6715   51.1399 H       1  ZINC000426567005    0.4300
     45 H45        -1.7024    5.2767   49.5799 H       1  ZINC000426567005    0.1500
     46 H46        -0.5343    4.7476   47.4846 H       1  ZINC000426567005    0.1400
     47 H47         1.1704    1.2059   47.1964 H       1  ZINC000426567005    0.4100
     48 H48        -0.0788    0.0059   44.4113 H       1  ZINC000426567005    0.1300
     49 H49         1.0952   -0.5258   42.3146 H       1  ZINC000426567005    0.1300
     50 H50         3.3298    0.4102   41.8813 H       1  ZINC000426567005    0.1200
     51 H51         4.3976    1.8785   43.5429 H       1  ZINC000426567005    0.1300
     52 H52         3.2294    2.4215   45.6400 H       1  ZINC000426567005    0.1300
     53 H53        -1.5604    0.6086   47.9686 H       1  ZINC000426567005    0.1300
     54 H54        -2.7220    1.1473   50.0651 H       1  ZINC000426567005    0.1400
@<TRIPOS>BOND
     1     1     2    2
     2     2     3   am
     3     2    14    1
     4     3     4    1
     5     3    32    1
     6     4    13    1
     7     4     5    2
     8     5     6    1
     9     6     7    1
    10     6    33    1
    11     7     8    1
    12     7    13    2
    13     8    12    1
    14     8     9    1
    15     8    34    1
    16     9    10    1
    17     9    35    1
    18     9    36    1
    19    10    11    1
    20    10    37    1
    21    10    38    1
    22    11    12    1
    23    11    39    1
    24    11    40    1
    25    12    41    1
    26    12    42    1
    27    13    43    1
    28    14    15    2
    29    14    16   am
    30    16    17    1
    31    16    44    1
    32    17    31   ar
    33    17    18   ar
    34    18    19   ar
    35    18    45    1
    36    19    20   ar
    37    19    46    1
    38    20    21    1
    39    20    30   ar
    40    21    22    2
    41    21    23   am
    42    23    24    1
    43    23    47    1
    44    24    29   ar
    45    24    25   ar
    46    25    26   ar
    47    25    48    1
    48    26    27   ar
    49    26    49    1
    50    27    28   ar
    51    27    50    1
    52    28    29   ar
    53    28    51    1
    54    29    52    1
    55    30    31   ar
    56    30    53    1
    57    31    54    1
@<TRIPOS>SUBSTRUCTURE
     1 ZINC000426567005        1 TEMP              0 ****  ****    0 ROOT


##########                                Name:    ZINC000496437542
##########                DOCK_Rotatable_Bonds:                   7
##########                         Heavy_Atoms:                  24
##########                    Molecular_Weight:             338.447
##########                DOCK_Rotatable_Bonds:                   7
##########                       Formal_Charge:           0.0400002
##########                     HBond_Acceptors:                   6
##########                        HBond_Donors:                   1
##########                         Heavy_Atoms:                  24
##########                          Grid_Score:          -25.954462
##########                     Grid_vdw_energy:          -26.502390
##########                      Grid_es_energy:            0.547927
##########           Internal_energy_repulsive:           17.504602

@<TRIPOS>MOLECULE
ZINC000496437542
 54 55 1 0 0
SMALL
USER_CHARGES


@<TRIPOS>ATOM
      1 C1        -11.2951   -0.1160   63.7103 C.3     1  ZINC000496437542   -0.1800
      2 C2        -11.5685    0.3550   62.2804 C.3     1  ZINC000496437542    0.1400
      3 C3        -12.3860   -0.7063   61.5413 C.3     1  ZINC000496437542   -0.1800
      4 C4        -12.3523    1.6684   62.3172 C.3     1  ZINC000496437542   -0.1400
      5 O5        -10.3082    0.5627   61.5900 O.3     1  ZINC000496437542   -0.3600
      6 C6         -9.7658   -0.5042   60.9734 C.2     1  ZINC000496437542    0.6600
      7 O7         -9.3598   -1.4433   61.6290 O.2     1  ZINC000496437542   -0.5600
      8 N8         -9.6732   -0.5307   59.6291 N.am    1  ZINC000496437542   -0.6000
      9 C9         -9.0844   -1.6858   58.9331 C.3     1  ZINC000496437542    0.0800
     10 C10       -10.0526   -2.1314   57.8312 C.3     1  ZINC000496437542    0.0500
     11 O11       -10.3910   -1.0052   57.0182 O.3     1  ZINC000496437542   -0.3700
     12 C12       -11.0743    0.0376   57.7180 C.3     1  ZINC000496437542    0.0700
     13 H13       -11.9822   -0.3616   58.1702 H       1  ZINC000496437542    0.0700
     14 C14       -11.4398    1.1554   56.7394 C.3     1  ZINC000496437542    0.1300
     15 N15       -10.3427    1.3499   55.7882 N.am    1  ZINC000496437542   -0.7200
     16 C16       -10.5279    1.0786   54.4811 C.2     1  ZINC000496437542    0.5600
     17 O17       -11.6063    0.6736   54.0910 O.2     1  ZINC000496437542   -0.5400
     18 C18        -9.4258    1.2721   53.5262 C.2     1  ZINC000496437542   -0.1900
     19 C19        -8.3738    1.9807   53.8752 C.2     1  ZINC000496437542   -0.0600
     20 C20        -7.2339    2.1866   52.9001 C.3     1  ZINC000496437542   -0.1000
     21 C21        -6.4791    0.8643   52.7464 C.3     1  ZINC000496437542   -0.1100
     22 C22        -7.1306   -0.0090   51.6898 C.3     1  ZINC000496437542   -0.1200
     23 C23        -8.5127   -0.5064   52.0720 C.3     1  ZINC000496437542   -0.1200
     24 C24        -9.5046    0.6497   52.1482 C.3     1  ZINC000496437542   -0.0800
     25 C25       -10.1635    0.5918   58.8137 C.3     1  ZINC000496437542    0.1000
     26 H26       -10.7367   -1.0517   63.6840 H       1  ZINC000496437542    0.0900
     27 H27       -10.7128    0.6401   64.2367 H       1  ZINC000496437542    0.0600
     28 H28       -12.2412   -0.2719   64.2285 H       1  ZINC000496437542    0.0700
     29 H29       -13.3321   -0.8622   62.0596 H       1  ZINC000496437542    0.0700
     30 H30       -12.5808   -0.3707   60.5227 H       1  ZINC000496437542    0.0600
     31 H31       -11.8275   -1.6420   61.5151 H       1  ZINC000496437542    0.0900
     32 H32       -11.7699    2.4245   62.8437 H       1  ZINC000496437542    0.0700
     33 H33       -12.5471    2.0039   61.2986 H       1  ZINC000496437542    0.0700
     34 H34       -13.2985    1.5125   62.8355 H       1  ZINC000496437542    0.0800
     35 H35        -8.1303   -1.4001   58.4900 H       1  ZINC000496437542    0.0800
     36 H36        -8.9319   -2.5016   59.6397 H       1  ZINC000496437542    0.1000
     37 H37        -9.5771   -2.8950   57.2156 H       1  ZINC000496437542    0.1100
     38 H38       -10.9567   -2.5385   58.2838 H       1  ZINC000496437542    0.0600
     39 H39       -12.3458    0.8827   56.1982 H       1  ZINC000496437542    0.0900
     40 H40       -11.6106    2.0799   57.2911 H       1  ZINC000496437542    0.0800
     41 H41        -9.4829    1.6740   56.0991 H       1  ZINC000496437542    0.4000
     42 H42        -8.3231    2.4178   54.8615 H       1  ZINC000496437542    0.1300
     43 H43        -7.6309    2.4960   51.9332 H       1  ZINC000496437542    0.0800
     44 H44        -6.5584    2.9515   53.2830 H       1  ZINC000496437542    0.0800
     45 H45        -5.4492    1.0711   52.4555 H       1  ZINC000496437542    0.0700
     46 H46        -6.4825    0.3364   53.7001 H       1  ZINC000496437542    0.0700
     47 H47        -7.2104    0.5639   50.7659 H       1  ZINC000496437542    0.0600
     48 H48        -6.4891   -0.8709   51.5068 H       1  ZINC000496437542    0.0600
     49 H49        -8.8545   -1.2243   51.3263 H       1  ZINC000496437542    0.0700
     50 H50        -8.4612   -0.9972   53.0439 H       1  ZINC000496437542    0.0600
     51 H51       -10.5141    0.2781   51.9724 H       1  ZINC000496437542    0.0700
     52 H52        -9.2516    1.3990   51.3981 H       1  ZINC000496437542    0.0800
     53 H53       -10.7237    1.2857   59.4405 H       1  ZINC000496437542    0.1100
     54 H54        -9.3164    1.1071   58.3611 H       1  ZINC000496437542    0.0900
@<TRIPOS>BOND
     1     1     2    1
     2     1    26    1
     3     1    27    1
     4     1    28    1
     5     2     3    1
     6     2     4    1
     7     2     5    1
     8     3    29    1
     9     3    30    1
    10     3    31    1
    11     4    32    1
    12     4    33    1
    13     4    34    1
    14     5     6    1
    15     6     7    2
    16     6     8   am
    17     8    25    1
    18     8     9    1
    19     9    10    1
    20     9    35    1
    21     9    36    1
    22    10    11    1
    23    10    37    1
    24    10    38    1
    25    11    12    1
    26    12    13    1
    27    12    14    1
    28    12    25    1
    29    14    15    1
    30    14    39    1
    31    14    40    1
    32    15    16   am
    33    15    41    1
    34    16    17    2
    35    16    18    1
    36    18    24    1
    37    18    19    2
    38    19    20    1
    39    19    42    1
    40    20    21    1
    41    20    43    1
    42    20    44    1
    43    21    22    1
    44    21    45    1
    45    21    46    1
    46    22    23    1
    47    22    47    1
    48    22    48    1
    49    23    24    1
    50    23    49    1
    51    23    50    1
    52    24    51    1
    53    24    52    1
    54    25    53    1
    55    25    54    1
@<TRIPOS>SUBSTRUCTURE
     1 ZINC000496437542        1 TEMP              0 ****  ****    0 ROOT


##########                                Name:    ZINC001211202056
##########                DOCK_Rotatable_Bonds:                   4
##########                         Heavy_Atoms:                  23
##########                    Molecular_Weight:             386.181
##########                DOCK_Rotatable_Bonds:                   4
##########                       Formal_Charge:           0.0199999
##########                     HBond_Acceptors:                  11
##########                        HBond_Donors:                   3
##########                         Heavy_Atoms:                  23
##########                          Grid_Score:          -25.937286
##########                     Grid_vdw_energy:          -25.262882
##########                      Grid_es_energy:           -0.674404
##########           Internal_energy_repulsive:            5.141963

@<TRIPOS>MOLECULE
ZINC001211202056
 31 32 1 0 0
SMALL
USER_CHARGES


@<TRIPOS>ATOM
      1 N1          4.6053    1.8577   43.3510 N.pl3   1  ZINC001211202056   -0.8500
      2 C2          3.3638    1.4169   43.8173 C.ar    1  ZINC001211202056    0.2900
      3 C3          3.2954    0.5406   44.8920 C.ar    1  ZINC001211202056   -0.2000
      4 C4          2.0665    0.1066   45.3506 C.ar    1  ZINC001211202056    0.0400
      5 C5          0.9052    0.5434   44.7408 C.ar    1  ZINC001211202056   -0.7300
      6 S6         -0.6596   -0.0130   45.3293 S.o2    1  ZINC001211202056    2.6900
      7 O7         -1.5140   -0.0799   44.1958 O.2     1  ZINC001211202056   -0.9400
      8 O8         -0.3983   -1.1266   46.1725 O.2     1  ZINC001211202056   -0.9300
      9 N9         -1.2686    1.1790   46.3042 N.am    1  ZINC001211202056   -1.0500
     10 C10        -0.5641    1.5783   47.4435 C.ar    1  ZINC001211202056    0.1600
     11 C11        -0.4743    0.7376   48.5492 C.ar    1  ZINC001211202056   -0.1200
     12 C12         0.2356    1.1776   49.6553 C.ar    1  ZINC001211202056   -0.0800
     13 C13         0.8266    2.4262   49.6257 C.ar    1  ZINC001211202056    0.0400
     14 C14         1.5999    2.9105   50.8251 C.3     1  ZINC001211202056    0.5300
     15 F15         2.5194    1.9305   51.2139 F       1  ZINC001211202056   -0.1700
     16 F16         2.2827    4.0864   50.4961 F       1  ZINC001211202056   -0.1600
     17 F17         0.7153    3.1643   51.8788 F       1  ZINC001211202056   -0.1700
     18 N18         0.7240    3.2003   48.5624 N.ar    1  ZINC001211202056   -0.4100
     19 C19         0.0624    2.8192   47.4873 C.ar    1  ZINC001211202056    0.1600
     20 Cl20       -0.0377    3.8815   46.1179 Cl      1  ZINC001211202056    0.0000
     21 C21         0.9689    1.4164   43.6697 C.ar    1  ZINC001211202056    0.0400
     22 C22         2.1942    1.8593   43.2098 C.ar    1  ZINC001211202056   -0.1400
     23 Cl23        2.2736    2.9551   41.8656 Cl      1  ZINC001211202056   -0.0500
     24 H24         4.6517    2.4731   42.6026 H       1  ZINC001211202056    0.4100
     25 H25         5.4204    1.5514   43.7783 H       1  ZINC001211202056    0.4100
     26 H26         4.2018    0.1982   45.3688 H       1  ZINC001211202056    0.1400
     27 H27         2.0129   -0.5751   46.1866 H       1  ZINC001211202056    0.1500
     28 H28        -2.1144    1.6002   46.0847 H       1  ZINC001211202056    0.4400
     29 H29        -0.9465   -0.2338   48.5453 H       1  ZINC001211202056    0.2000
     30 H30         0.3256    0.5516   50.5307 H       1  ZINC001211202056    0.1700
     31 H31         0.0598    1.7557   43.1955 H       1  ZINC001211202056    0.1500
@<TRIPOS>BOND
     1     1     2    1
     2     1    24    1
     3     1    25    1
     4     2    22   ar
     5     2     3   ar
     6     3     4   ar
     7     3    26    1
     8     4     5   ar
     9     4    27    1
    10     5     6    1
    11     5    21   ar
    12     6     7    2
    13     6     8    2
    14     6     9   am
    15     9    10    1
    16     9    28    1
    17    10    19   ar
    18    10    11   ar
    19    11    12   ar
    20    11    29    1
    21    12    13   ar
    22    12    30    1
    23    13    14    1
    24    13    18   ar
    25    14    15    1
    26    14    16    1
    27    14    17    1
    28    18    19   ar
    29    19    20    1
    30    21    22   ar
    31    21    31    1
    32    22    23    1
@<TRIPOS>SUBSTRUCTURE
     1 ZINC001211202056        1 TEMP              0 ****  ****    0 ROOT


##########                                Name:    ZINC001058772245
##########                DOCK_Rotatable_Bonds:                  11
##########                         Heavy_Atoms:                  22
##########                    Molecular_Weight:             335.375
##########                DOCK_Rotatable_Bonds:                  11
##########                       Formal_Charge:          0.00999964
##########                     HBond_Acceptors:                   9
##########                        HBond_Donors:                   2
##########                         Heavy_Atoms:                  22
##########                          Grid_Score:          -25.920284
##########                     Grid_vdw_energy:          -25.631130
##########                      Grid_es_energy:           -0.289153
##########           Internal_energy_repulsive:           73.675835

@<TRIPOS>MOLECULE
ZINC001058772245
 41 41 1 0 0
SMALL
USER_CHARGES


@<TRIPOS>ATOM
      1 C1          1.5253    1.8244   41.9076 C.3     1  ZINC001058772245   -0.1700
      2 C2          2.2651    2.3491   43.1398 C.3     1  ZINC001058772245   -0.1400
      3 C3          3.2284    3.4615   42.7208 C.3     1  ZINC001058772245   -0.1500
      4 C4          1.2684    2.8944   44.1298 C.2     1  ZINC001058772245    0.5300
      5 O5          1.1471    4.0928   44.2707 O.2     1  ZINC001058772245   -0.5200
      6 N6          0.5116    2.0502   44.8586 N.am    1  ZINC001058772245   -0.5900
      7 C7          0.6580    0.6025   44.6883 C.3     1  ZINC001058772245    0.0800
      8 C8         -0.6058   -0.1002   45.1883 C.3     1  ZINC001058772245    0.0400
      9 O9         -1.6808    0.1499   44.2807 O.3     1  ZINC001058772245   -0.5700
     10 C10        -0.4574    2.5802   45.8211 C.3     1  ZINC001058772245    0.1100
     11 C11         0.0987    2.4322   47.2387 C.3     1  ZINC001058772245    0.1000
     12 N12        -1.0105    2.3296   48.1902 N.am    1  ZINC001058772245   -0.7100
     13 C13        -0.9718    3.0192   49.3474 C.2     1  ZINC001058772245    0.6000
     14 O14        -0.0165    3.7280   49.6014 O.2     1  ZINC001058772245   -0.5300
     15 C15        -2.0860    2.9146   50.3047 C.2     1  ZINC001058772245    0.0000
     16 C16        -2.3202    3.8323   51.2696 C.2     1  ZINC001058772245   -0.2200
     17 S17        -3.6954    3.3530   52.1647 S.3     1  ZINC001058772245    0.2300
     18 C18        -3.8783    1.9559   51.1999 C.2     1  ZINC001058772245    0.0000
     19 N19        -2.9628    1.9072   50.2973 N.2     1  ZINC001058772245   -0.4400
     20 C20         3.0535    1.2081   43.7856 C.3     1  ZINC001058772245    0.2900
     21 F21         2.6808   -0.0063   43.1995 F       1  ZINC001058772245   -0.1900
     22 F22         4.4229    1.4189   43.5911 F       1  ZINC001058772245   -0.2000
     23 H23         2.1901    1.1811   41.3312 H       1  ZINC001058772245    0.0800
     24 H24         0.6518    1.2540   42.2238 H       1  ZINC001058772245    0.0700
     25 H25         1.2066    2.6642   41.2900 H       1  ZINC001058772245    0.0900
     26 H26         2.6646    4.3699   42.5090 H       1  ZINC001058772245    0.0800
     27 H27         3.9357    3.6527   43.5279 H       1  ZINC001058772245    0.0700
     28 H28         3.7715    3.1543   41.8270 H       1  ZINC001058772245    0.0900
     29 H29         0.8072    0.3742   43.6329 H       1  ZINC001058772245    0.0900
     30 H30         1.5180    0.2545   45.2604 H       1  ZINC001058772245    0.1200
     31 H31        -0.4245   -1.1733   45.2500 H       1  ZINC001058772245    0.0600
     32 H32        -0.8673    0.2814   46.1753 H       1  ZINC001058772245    0.0700
     33 H33        -1.8760    1.0881   44.1513 H       1  ZINC001058772245    0.3800
     34 H34        -0.6395    3.6340   45.6104 H       1  ZINC001058772245    0.1000
     35 H35        -1.3924    2.0262   45.7379 H       1  ZINC001058772245    0.0900
     36 H36         0.7114    1.5326   47.2967 H       1  ZINC001058772245    0.0700
     37 H37         0.7074    3.3029   47.4830 H       1  ZINC001058772245    0.0700
     38 H38        -1.7729    1.7652   47.9873 H       1  ZINC001058772245    0.4100
     39 H39        -1.7345    4.7224   51.4458 H       1  ZINC001058772245    0.1900
     40 H40        -4.6562    1.2177   51.3275 H       1  ZINC001058772245    0.2100
     41 H41         2.8389    1.1770   44.8537 H       1  ZINC001058772245    0.1200
@<TRIPOS>BOND
     1     1     2    1
     2     1    23    1
     3     1    24    1
     4     1    25    1
     5     2     3    1
     6     2     4    1
     7     2    20    1
     8     3    26    1
     9     3    27    1
    10     3    28    1
    11     4     5    2
    12     4     6   am
    13     6     7    1
    14     6    10    1
    15     7     8    1
    16     7    29    1
    17     7    30    1
    18     8     9    1
    19     8    31    1
    20     8    32    1
    21     9    33    1
    22    10    11    1
    23    10    34    1
    24    10    35    1
    25    11    12    1
    26    11    36    1
    27    11    37    1
    28    12    13   am
    29    12    38    1
    30    13    14    2
    31    13    15    1
    32    15    19    1
    33    15    16    2
    34    16    17    1
    35    16    39    1
    36    17    18    1
    37    18    19    2
    38    18    40    1
    39    20    21    1
    40    20    22    1
    41    20    41    1
@<TRIPOS>SUBSTRUCTURE
     1 ZINC001058772245        1 TEMP              0 ****  ****    0 ROOT


##########                                Name:    ZINC000545381384
##########                DOCK_Rotatable_Bonds:                   6
##########                         Heavy_Atoms:                  30
##########                    Molecular_Weight:             405.543
##########                DOCK_Rotatable_Bonds:                   6
##########                       Formal_Charge:                0.05
##########                     HBond_Acceptors:                   6
##########                        HBond_Donors:                   1
##########                         Heavy_Atoms:                  30
##########                          Grid_Score:          -25.905138
##########                     Grid_vdw_energy:          -23.472347
##########                      Grid_es_energy:           -2.432791
##########           Internal_energy_repulsive:           16.821123

@<TRIPOS>MOLECULE
ZINC000545381384
 61 64 1 0 0
SMALL
USER_CHARGES


@<TRIPOS>ATOM
      1 C1         -9.3760   -0.3899   64.9385 C.3     1  ZINC000545381384   -0.2000
      2 C2        -10.4637    0.2423   64.0678 C.3     1  ZINC000545381384    0.0500
      3 N3        -10.8114   -0.6759   62.9751 N.3     1  ZINC000545381384   -0.5300
      4 C4         -9.9770   -0.4247   61.7896 C.3     1  ZINC000545381384    0.0500
      5 C5        -10.1058   -1.6171   60.8421 C.3     1  ZINC000545381384   -0.0700
      6 C6        -11.5635   -1.9257   60.5977 C.ar    1  ZINC000545381384    0.1800
      7 C7        -12.5531   -1.4328   61.4401 C.ar    1  ZINC000545381384   -0.0800
      8 C8        -12.2318   -0.5652   62.6278 C.3     1  ZINC000545381384    0.0900
      9 C9        -13.8880   -1.7402   61.1890 C.ar    1  ZINC000545381384   -0.0700
     10 C10       -14.9629   -1.2338   62.0688 C.2     1  ZINC000545381384    0.5800
     11 O11       -15.1034   -1.6955   63.1844 O.2     1  ZINC000545381384   -0.4800
     12 N12       -15.7870   -0.2602   61.6337 N.am    1  ZINC000545381384   -0.6400
     13 C13       -16.7990    0.2184   62.4633 C.2     1  ZINC000545381384    0.3000
     14 C14       -16.6295    0.8737   63.6448 C.2     1  ZINC000545381384   -0.2700
     15 C15       -17.8956    1.1776   64.1518 C.2     1  ZINC000545381384    0.1000
     16 C16       -18.1770    1.9021   65.4428 C.3     1  ZINC000545381384   -0.0300
     17 C17       -18.2677    3.4057   65.1745 C.3     1  ZINC000545381384   -0.0600
     18 C18       -16.9429    3.9003   64.5904 C.3     1  ZINC000545381384   -0.1500
     19 C19       -19.3975    3.6790   64.1797 C.3     1  ZINC000545381384   -0.1400
     20 C20       -18.5534    4.1413   66.4854 C.3     1  ZINC000545381384   -0.1400
     21 N21       -18.7954    0.7270   63.3156 N.2     1  ZINC000545381384   -0.2700
     22 N22       -18.1350    0.1218   62.2387 N.pl3   1  ZINC000545381384   -0.3900
     23 C23       -18.7721   -0.5105   61.0809 C.3     1  ZINC000545381384    0.1000
     24 C24       -14.1872   -2.5511   60.0671 C.ar    1  ZINC000545381384   -0.0700
     25 C25       -15.5044   -2.9034   59.7468 C.ar    1  ZINC000545381384   -0.1100
     26 C26       -15.7469   -3.6844   58.6568 C.ar    1  ZINC000545381384   -0.1000
     27 C27       -14.7004   -4.1380   57.8563 C.ar    1  ZINC000545381384   -0.1000
     28 C28       -13.4093   -3.8155   58.1394 C.ar    1  ZINC000545381384   -0.0900
     29 C29       -13.1195   -3.0104   59.2566 C.ar    1  ZINC000545381384    0.1400
     30 N30       -11.8652   -2.6782   59.5597 N.ar    1  ZINC000545381384   -0.4600
     31 H31        -9.7311   -1.3441   65.3278 H       1  ZINC000545381384    0.0600
     32 H32        -8.4800   -0.5527   64.3395 H       1  ZINC000545381384    0.0600
     33 H33        -9.1419    0.2766   65.7687 H       1  ZINC000545381384    0.0700
     34 H34       -11.3480    0.4361   64.6749 H       1  ZINC000545381384    0.0900
     35 H35       -10.0962    1.1802   63.6514 H       1  ZINC000545381384    0.0800
     36 H36       -10.3179    0.4806   61.2871 H       1  ZINC000545381384    0.0500
     37 H37        -8.9364   -0.3086   62.0924 H       1  ZINC000545381384    0.0900
     38 H38        -9.6222   -1.3800   59.8944 H       1  ZINC000545381384    0.1000
     39 H39        -9.6213   -2.4864   61.2865 H       1  ZINC000545381384    0.1000
     40 H40       -12.8362   -0.8807   63.4783 H       1  ZINC000545381384    0.0900
     41 H41       -12.4648    0.4726   62.3894 H       1  ZINC000545381384    0.0700
     42 H42       -15.6757    0.1075   60.7430 H       1  ZINC000545381384    0.4100
     43 H43       -15.6843    1.1153   64.1080 H       1  ZINC000545381384    0.1700
     44 H44       -19.1208    1.5498   65.8589 H       1  ZINC000545381384    0.0800
     45 H45       -17.3722    1.7074   66.1517 H       1  ZINC000545381384    0.0800
     46 H46       -16.7394    3.3763   63.6566 H       1  ZINC000545381384    0.0500
     47 H47       -17.0076    4.9716   64.3992 H       1  ZINC000545381384    0.0500
     48 H48       -16.1380    3.7057   65.2991 H       1  ZINC000545381384    0.0800
     49 H49       -20.3412    3.3266   64.5959 H       1  ZINC000545381384    0.0600
     50 H50       -19.4621    4.7502   63.9886 H       1  ZINC000545381384    0.0600
     51 H51       -19.1940    3.1549   63.2459 H       1  ZINC000545381384    0.0600
     52 H52       -17.7484    3.9466   67.1941 H       1  ZINC000545381384    0.0500
     53 H53       -18.6180    5.2125   66.2942 H       1  ZINC000545381384    0.0500
     54 H54       -19.4971    3.7888   66.9015 H       1  ZINC000545381384    0.0500
     55 H55       -18.9181    0.2318   60.2961 H       1  ZINC000545381384    0.0800
     56 H56       -18.1347   -1.3124   60.7083 H       1  ZINC000545381384    0.0800
     57 H57       -19.7374   -0.9213   61.3766 H       1  ZINC000545381384    0.1000
     58 H58       -16.3234   -2.5582   60.3605 H       1  ZINC000545381384    0.1300
     59 H59       -16.7629   -3.9556   58.4105 H       1  ZINC000545381384    0.1300
     60 H60       -14.9177   -4.7557   56.9974 H       1  ZINC000545381384    0.1400
     61 H61       -12.6099   -4.1762   57.5092 H       1  ZINC000545381384    0.1400
@<TRIPOS>BOND
     1     1     2    1
     2     1    31    1
     3     1    32    1
     4     1    33    1
     5     2     3    1
     6     2    34    1
     7     2    35    1
     8     3     8    1
     9     3     4    1
    10     4     5    1
    11     4    36    1
    12     4    37    1
    13     5     6    1
    14     5    38    1
    15     5    39    1
    16     6    30   ar
    17     6     7   ar
    18     7     8    1
    19     7     9   ar
    20     8    40    1
    21     8    41    1
    22     9    10    1
    23     9    24   ar
    24    10    11    2
    25    10    12   am
    26    12    13    1
    27    12    42    1
    28    13    22    1
    29    13    14    2
    30    14    15    1
    31    14    43    1
    32    15    16    1
    33    15    21    2
    34    16    17    1
    35    16    44    1
    36    16    45    1
    37    17    18    1
    38    17    19    1
    39    17    20    1
    40    18    46    1
    41    18    47    1
    42    18    48    1
    43    19    49    1
    44    19    50    1
    45    19    51    1
    46    20    52    1
    47    20    53    1
    48    20    54    1
    49    21    22    1
    50    22    23    1
    51    23    55    1
    52    23    56    1
    53    23    57    1
    54    24    29   ar
    55    24    25   ar
    56    25    26   ar
    57    25    58    1
    58    26    27   ar
    59    26    59    1
    60    27    28   ar
    61    27    60    1
    62    28    29   ar
    63    28    61    1
    64    29    30   ar
@<TRIPOS>SUBSTRUCTURE
     1 ZINC000545381384        1 TEMP              0 ****  ****    0 ROOT


##########                                Name:    ZINC000817655807
##########                DOCK_Rotatable_Bonds:                   3
##########                         Heavy_Atoms:                  24
##########                    Molecular_Weight:             352.774
##########                DOCK_Rotatable_Bonds:                   3
##########                       Formal_Charge:         3.35276e-07
##########                     HBond_Acceptors:                   8
##########                        HBond_Donors:                   0
##########                         Heavy_Atoms:                  24
##########                          Grid_Score:          -25.886398
##########                     Grid_vdw_energy:          -25.358227
##########                      Grid_es_energy:           -0.528172
##########           Internal_energy_repulsive:            3.791768

@<TRIPOS>MOLECULE
ZINC000817655807
 41 44 1 0 0
SMALL
USER_CHARGES


@<TRIPOS>ATOM
      1 C1        -15.1902   -5.6708   53.5835 C.3     1  ZINC000817655807    0.1100
      2 N2        -14.8818   -4.5997   54.5343 N.am    1  ZINC000817655807   -0.6400
      3 C3        -13.6324   -4.4712   55.3056 C.3     1  ZINC000817655807    0.1000
      4 C4        -13.8517   -3.1931   56.1203 C.3     1  ZINC000817655807    0.0500
      5 C5        -13.5704   -3.3034   57.6189 C.3     1  ZINC000817655807    0.1200
      6 N6        -12.2209   -2.7974   57.2918 N.am    1  ZINC000817655807   -0.6500
      7 C7        -11.0131   -2.8819   57.8838 C.2     1  ZINC000817655807    0.5500
      8 O8        -10.0493   -2.3510   57.3738 O.2     1  ZINC000817655807   -0.5100
      9 C9        -10.8601   -3.6361   59.1796 C.3     1  ZINC000817655807   -0.0900
     10 C10       -11.1130   -2.7038   60.3363 C.ar    1  ZINC000817655807   -0.0600
     11 C11       -12.4093   -2.4132   60.7174 C.ar    1  ZINC000817655807   -0.0900
     12 C12       -12.6452   -1.5561   61.7773 C.ar    1  ZINC000817655807   -0.0300
     13 Cl13      -14.2747   -1.1929   62.2530 Cl      1  ZINC000817655807   -0.0500
     14 C14       -11.5802   -0.9869   62.4608 C.ar    1  ZINC000817655807    0.0600
     15 O15       -11.8275   -0.1391   63.4968 O.3     1  ZINC000817655807   -0.2900
     16 C16       -10.7395    0.1186   64.3912 C.3     1  ZINC000817655807    0.0200
     17 C17        -9.4865    0.4073   63.5534 C.3     1  ZINC000817655807    0.0200
     18 O18        -9.2178   -0.7393   62.7390 O.3     1  ZINC000817655807   -0.3000
     19 C19       -10.2771   -1.2827   62.0792 C.ar    1  ZINC000817655807    0.0600
     20 C20       -10.0478   -2.1455   61.0178 C.ar    1  ZINC000817655807   -0.0900
     21 C21       -12.7246   -2.1623   56.0561 C.3     1  ZINC000817655807    0.1100
     22 O22       -15.1692   -2.7284   55.7462 O.3     1  ZINC000817655807   -0.3000
     23 C23       -15.6879   -3.5720   54.8411 C.2     1  ZINC000817655807    0.6400
     24 O24       -16.7895   -3.4232   54.3502 O.2     1  ZINC000817655807   -0.5100
     25 H25       -16.1809   -5.5063   53.1597 H       1  ZINC000817655807    0.0900
     26 H26       -14.4488   -5.6718   52.7844 H       1  ZINC000817655807    0.0700
     27 H27       -15.1702   -6.6310   54.0989 H       1  ZINC000817655807    0.0700
     28 H28       -13.4974   -5.3289   55.9647 H       1  ZINC000817655807    0.1000
     29 H29       -12.7780   -4.3597   54.6381 H       1  ZINC000817655807    0.1000
     30 H30       -14.1608   -2.6199   58.2291 H       1  ZINC000817655807    0.1100
     31 H31       -13.5779   -4.3266   57.9942 H       1  ZINC000817655807    0.1000
     32 H32       -11.5780   -4.4557   59.2098 H       1  ZINC000817655807    0.1100
     33 H33        -9.8486   -4.0362   59.2498 H       1  ZINC000817655807    0.1100
     34 H34       -13.2394   -2.8556   60.1868 H       1  ZINC000817655807    0.1400
     35 H35       -10.9723    0.9823   65.0139 H       1  ZINC000817655807    0.1300
     36 H36       -10.5672   -0.7539   65.0214 H       1  ZINC000817655807    0.0800
     37 H37        -9.6608    1.2761   62.9187 H       1  ZINC000817655807    0.0800
     38 H38        -8.6392    0.5967   64.2124 H       1  ZINC000817655807    0.1300
     39 H39        -9.0359   -2.3782   60.7209 H       1  ZINC000817655807    0.1400
     40 H40       -12.0643   -2.2848   55.1975 H       1  ZINC000817655807    0.1000
     41 H41       -13.0596   -1.1343   56.1944 H       1  ZINC000817655807    0.1100
@<TRIPOS>BOND
     1     1     2    1
     2     1    25    1
     3     1    26    1
     4     1    27    1
     5     2    23   am
     6     2     3    1
     7     3     4    1
     8     3    28    1
     9     3    29    1
    10     4    21    1
    11     4     5    1
    12     4    22    1
    13     5     6    1
    14     5    30    1
    15     5    31    1
    16     6     7   am
    17     6    21    1
    18     7     8    2
    19     7     9    1
    20     9    10    1
    21     9    32    1
    22     9    33    1
    23    10    20   ar
    24    10    11   ar
    25    11    12   ar
    26    11    34    1
    27    12    13    1
    28    12    14   ar
    29    14    19   ar
    30    14    15    1
    31    15    16    1
    32    16    17    1
    33    16    35    1
    34    16    36    1
    35    17    18    1
    36    17    37    1
    37    17    38    1
    38    18    19    1
    39    19    20   ar
    40    20    39    1
    41    21    40    1
    42    21    41    1
    43    22    23    1
    44    23    24    2
@<TRIPOS>SUBSTRUCTURE
     1 ZINC000817655807        1 TEMP              0 ****  ****    0 ROOT


##########                                Name:    ZINC000915315870
##########                DOCK_Rotatable_Bonds:                   4
##########                         Heavy_Atoms:                  24
##########                    Molecular_Weight:             357.381
##########                DOCK_Rotatable_Bonds:                   4
##########                       Formal_Charge:           0.0300002
##########                     HBond_Acceptors:                   9
##########                        HBond_Donors:                   1
##########                         Heavy_Atoms:                  24
##########                          Grid_Score:          -25.826630
##########                     Grid_vdw_energy:          -24.851763
##########                      Grid_es_energy:           -0.974866
##########           Internal_energy_repulsive:           36.429363

@<TRIPOS>MOLECULE
ZINC000915315870
 41 43 1 0 0
SMALL
USER_CHARGES


@<TRIPOS>ATOM
      1 C1        -15.1992   -4.5295   54.7655 C.3     1  ZINC000915315870    0.0300
      2 O2        -14.4909   -3.2897   54.8232 O.3     1  ZINC000915315870   -0.3200
      3 C3        -13.4901   -3.1926   55.7391 C.ar    1  ZINC000915315870    0.0800
      4 C4        -12.6864   -2.0610   55.7740 C.ar    1  ZINC000915315870    0.0900
      5 F5        -12.8980   -1.0541   54.8983 F       1  ZINC000915315870   -0.1100
      6 C6        -11.6691   -1.9652   56.7070 C.ar    1  ZINC000915315870   -0.0500
      7 C7        -11.4519   -2.9950   57.6034 C.ar    1  ZINC000915315870   -0.6300
      8 S8        -10.1550   -2.8695   58.7894 S.o2    1  ZINC000915315870    2.7000
      9 O9         -9.4786   -4.1192   58.7782 O.2     1  ZINC000915315870   -0.9400
     10 O10        -9.5037   -1.6309   58.5422 O.2     1  ZINC000915315870   -0.9400
     11 N11       -10.8648   -2.7354   60.2796 N.am    1  ZINC000915315870   -1.1100
     12 C12       -11.7629   -1.6137   60.5648 C.3     1  ZINC000915315870    0.2400
     13 H13       -11.6418   -0.8429   59.8037 H       1  ZINC000915315870    0.0900
     14 C14       -13.2161   -2.1045   60.5777 C.3     1  ZINC000915315870   -0.1400
     15 C15       -14.1297   -0.9988   61.1109 C.3     1  ZINC000915315870   -0.1100
     16 C16       -13.9094   -0.8268   62.6190 C.3     1  ZINC000915315870   -0.0400
     17 C17       -12.4271   -0.6848   62.8659 C.2     1  ZINC000915315870    0.0900
     18 N18       -11.8262   -0.2337   63.9283 N.2     1  ZINC000915315870   -0.2900
     19 N19       -10.4423   -0.2847   63.7020 N.pl3   1  ZINC000915315870   -0.3800
     20 C20        -9.3998    0.1304   64.6437 C.3     1  ZINC000915315870    0.1000
     21 C21       -10.2401   -0.7849   62.4622 C.2     1  ZINC000915315870    0.0800
     22 C22       -11.4461   -1.0410   61.9244 C.2     1  ZINC000915315870   -0.2500
     23 C23       -12.2507   -4.1230   57.5715 C.ar    1  ZINC000915315870   -0.0500
     24 C24       -13.2735   -4.2224   56.6447 C.ar    1  ZINC000915315870    0.1000
     25 F25       -14.0536   -5.3249   56.6141 F       1  ZINC000915315870   -0.1100
     26 H26       -15.9684   -4.4729   53.9952 H       1  ZINC000915315870    0.1100
     27 H27       -14.5040   -5.3342   54.5261 H       1  ZINC000915315870    0.0600
     28 H28       -15.6653   -4.7271   55.7307 H       1  ZINC000915315870    0.0500
     29 H29       -11.0436   -1.0851   56.7346 H       1  ZINC000915315870    0.1700
     30 H30       -10.6860   -3.3995   60.9636 H       1  ZINC000915315870    0.4200
     31 H31       -13.5189   -2.3678   59.5642 H       1  ZINC000915315870    0.0900
     32 H32       -13.2967   -2.9822   61.2189 H       1  ZINC000915315870    0.0800
     33 H33       -13.9008   -0.0625   60.6021 H       1  ZINC000915315870    0.0700
     34 H34       -15.1698   -1.2667   60.9249 H       1  ZINC000915315870    0.0800
     35 H35       -14.4274    0.0670   62.9667 H       1  ZINC000915315870    0.0800
     36 H36       -14.2882   -1.7013   63.1481 H       1  ZINC000915315870    0.0900
     37 H37        -9.1131   -0.7177   65.2654 H       1  ZINC000915315870    0.0800
     38 H38        -8.5305    0.4854   64.0901 H       1  ZINC000915315870    0.0900
     39 H39        -9.7801    0.9325   65.2763 H       1  ZINC000915315870    0.0900
     40 H40        -9.2833   -0.9491   61.9891 H       1  ZINC000915315870    0.1700
     41 H41       -12.0789   -4.9257   58.2733 H       1  ZINC000915315870    0.1700
@<TRIPOS>BOND
     1     1     2    1
     2     1    26    1
     3     1    27    1
     4     1    28    1
     5     2     3    1
     6     3    24   ar
     7     3     4   ar
     8     4     5    1
     9     4     6   ar
    10     6     7   ar
    11     6    29    1
    12     7     8    1
    13     7    23   ar
    14     8     9    2
    15     8    10    2
    16     8    11   am
    17    11    12    1
    18    11    30    1
    19    12    13    1
    20    12    22    1
    21    12    14    1
    22    14    15    1
    23    14    31    1
    24    14    32    1
    25    15    16    1
    26    15    33    1
    27    15    34    1
    28    16    17    1
    29    16    35    1
    30    16    36    1
    31    17    22    1
    32    17    18    2
    33    18    19    1
    34    19    20    1
    35    19    21    1
    36    20    37    1
    37    20    38    1
    38    20    39    1
    39    21    22    2
    40    21    40    1
    41    23    24   ar
    42    23    41    1
    43    24    25    1
@<TRIPOS>SUBSTRUCTURE
     1 ZINC000915315870        1 TEMP              0 ****  ****    0 ROOT


##########                                Name:    ZINC000794876634
##########                DOCK_Rotatable_Bonds:                   4
##########                         Heavy_Atoms:                  24
##########                    Molecular_Weight:             389.249
##########                DOCK_Rotatable_Bonds:                   4
##########                       Formal_Charge:        -4.47035e-08
##########                     HBond_Acceptors:                   5
##########                        HBond_Donors:                   0
##########                         Heavy_Atoms:                  24
##########                          Grid_Score:          -25.824871
##########                     Grid_vdw_energy:          -24.805584
##########                      Grid_es_energy:           -1.019287
##########           Internal_energy_repulsive:           54.853149

@<TRIPOS>MOLECULE
ZINC000794876634
 41 43 1 0 0
SMALL
USER_CHARGES


@<TRIPOS>ATOM
      1 C1        -10.9074   -0.4983   54.2110 C.3     1  ZINC000794876634    0.0200
      2 O2        -11.1468   -1.6386   55.0382 O.3     1  ZINC000794876634   -0.3000
      3 C3        -10.8254   -1.5250   56.3527 C.ar    1  ZINC000794876634    0.1300
      4 C4        -11.0286   -2.5986   57.2100 C.ar    1  ZINC000794876634   -0.1800
      5 C5        -10.7052   -2.4901   58.5443 C.ar    1  ZINC000794876634   -0.0400
      6 C6        -10.9272   -3.6574   59.4711 C.3     1  ZINC000794876634   -0.1200
      7 C7        -10.1693   -1.2939   59.0394 C.ar    1  ZINC000794876634   -0.1000
      8 C8         -9.8237   -1.1750   60.4588 C.2     1  ZINC000794876634    0.0600
      9 C9        -10.6664   -0.5262   61.3144 C.2     1  ZINC000794876634   -0.1700
     10 C10       -11.9549    0.1117   60.9940 C.2     1  ZINC000794876634    0.5700
     11 O11       -12.4769    0.1587   59.8951 O.2     1  ZINC000794876634   -0.4900
     12 N12       -12.4528    0.6319   62.1283 N.am    1  ZINC000794876634   -0.5300
     13 C13       -13.7270    1.3497   62.2155 C.3     1  ZINC000794876634    0.0800
     14 C14       -11.6112    0.4042   63.2060 C.ar    1  ZINC000794876634    0.3700
     15 N15       -11.7130    0.7388   64.4864 N.ar    1  ZINC000794876634   -0.4900
     16 C16       -10.7846    0.4203   65.3655 C.ar    1  ZINC000794876634    0.1800
     17 C17        -9.6507   -0.2823   64.9980 C.ar    1  ZINC000794876634   -0.1800
     18 Br18       -8.3379   -0.7237   66.2854 Br      1  ZINC000794876634   -0.0200
     19 C19        -9.4900   -0.6590   63.6725 C.ar    1  ZINC000794876634    0.0000
     20 C20       -10.4890   -0.3148   62.7679 C.ar    1  ZINC000794876634   -0.1400
     21 C21        -9.9645   -0.2112   58.1725 C.ar    1  ZINC000794876634   -0.1400
     22 C22       -10.2869   -0.3320   56.8363 C.ar    1  ZINC000794876634    0.0900
     23 O23       -10.0892    0.7158   55.9922 O.3     1  ZINC000794876634   -0.3000
     24 C24        -9.5334    1.9061   56.5546 C.3     1  ZINC000794876634    0.0200
     25 H25       -11.2074   -0.7226   53.1874 H       1  ZINC000794876634    0.1000
     26 H26       -11.4861    0.3477   54.5821 H       1  ZINC000794876634    0.0600
     27 H27        -9.8462   -0.2501   54.2326 H       1  ZINC000794876634    0.0600
     28 H28       -11.4416   -3.5210   56.8293 H       1  ZINC000794876634    0.1400
     29 H29       -10.0325   -4.2796   59.4926 H       1  ZINC000794876634    0.0800
     30 H30       -11.1379   -3.2892   60.4752 H       1  ZINC000794876634    0.0700
     31 H31       -11.7719   -4.2478   59.1160 H       1  ZINC000794876634    0.0700
     32 H32        -8.9023   -1.6006   60.8277 H       1  ZINC000794876634    0.1500
     33 H33       -14.1899    1.3892   61.2295 H       1  ZINC000794876634    0.0900
     34 H34       -14.3899    0.8303   62.9076 H       1  ZINC000794876634    0.0800
     35 H35       -13.5491    2.3634   62.5743 H       1  ZINC000794876634    0.0800
     36 H36       -10.9114    0.7148   66.3968 H       1  ZINC000794876634    0.1800
     37 H37        -8.6164   -1.2077   63.3530 H       1  ZINC000794876634    0.1600
     38 H38        -9.5518    0.7132   58.5486 H       1  ZINC000794876634    0.1400
     39 H39       -10.2321    2.3269   57.2777 H       1  ZINC000794876634    0.0500
     40 H40        -8.5939    1.6679   57.0532 H       1  ZINC000794876634    0.0600
     41 H41        -9.3502    2.6314   55.7618 H       1  ZINC000794876634    0.1100
@<TRIPOS>BOND
     1     1     2    1
     2     1    25    1
     3     1    26    1
     4     1    27    1
     5     2     3    1
     6     3    22   ar
     7     3     4   ar
     8     4     5   ar
     9     4    28    1
    10     5     6    1
    11     5     7   ar
    12     6    29    1
    13     6    30    1
    14     6    31    1
    15     7     8    1
    16     7    21   ar
    17     8     9    2
    18     8    32    1
    19     9    20    1
    20     9    10    1
    21    10    11    2
    22    10    12   am
    23    12    13    1
    24    12    14    1
    25    13    33    1
    26    13    34    1
    27    13    35    1
    28    14    20   ar
    29    14    15   ar
    30    15    16   ar
    31    16    17   ar
    32    16    36    1
    33    17    18    1
    34    17    19   ar
    35    19    20   ar
    36    19    37    1
    37    21    22   ar
    38    21    38    1
    39    22    23    1
    40    23    24    1
    41    24    39    1
    42    24    40    1
    43    24    41    1
@<TRIPOS>SUBSTRUCTURE
     1 ZINC000794876634        1 TEMP              0 ****  ****    0 ROOT


##########                                Name:    ZINC000077537368
##########                DOCK_Rotatable_Bonds:                   5
##########                         Heavy_Atoms:                  27
##########                    Molecular_Weight:             365.478
##########                DOCK_Rotatable_Bonds:                   5
##########                       Formal_Charge:          -0.0400007
##########                     HBond_Acceptors:                   6
##########                        HBond_Donors:                   0
##########                         Heavy_Atoms:                  27
##########                          Grid_Score:          -25.817165
##########                     Grid_vdw_energy:          -25.570103
##########                      Grid_es_energy:           -0.247062
##########           Internal_energy_repulsive:           11.316539

@<TRIPOS>MOLECULE
ZINC000077537368
 54 56 1 0 0
SMALL
USER_CHARGES


@<TRIPOS>ATOM
      1 C1        -17.8461   -1.4090   58.0561 C.3     1  ZINC000077537368    0.0800
      2 N2        -16.9529   -2.5292   57.7501 N.pl3   1  ZINC000077537368   -0.2600
      3 N3        -16.6767   -2.9547   56.5701 N.2     1  ZINC000077537368   -0.2700
      4 C4        -15.8497   -3.9676   56.6202 C.2     1  ZINC000077537368    0.0400
      5 C5        -15.3025   -4.7256   55.4383 C.3     1  ZINC000077537368    0.0200
      6 C6        -13.9475   -4.1382   55.0385 C.3     1  ZINC000077537368   -0.1400
      7 C7        -15.1291   -6.1988   55.8131 C.3     1  ZINC000077537368   -0.1400
      8 C8        -16.2754   -4.6096   54.2631 C.3     1  ZINC000077537368   -0.1400
      9 C9        -15.5636   -4.2211   57.9636 C.2     1  ZINC000077537368   -0.2000
     10 C10       -16.2821   -3.2767   58.6760 C.2     1  ZINC000077537368   -0.0400
     11 C11       -16.3225   -3.1159   60.1382 C.2     1  ZINC000077537368    0.5900
     12 O12       -17.3412   -3.3742   60.7505 O.2     1  ZINC000077537368   -0.5400
     13 N13       -15.2307   -2.6823   60.7989 N.am    1  ZINC000077537368   -0.6000
     14 C14       -13.9907   -2.3586   60.0772 C.3     1  ZINC000077537368    0.0800
     15 C15       -13.5304   -0.9605   60.5034 C.3     1  ZINC000077537368    0.0400
     16 N16       -13.4288   -0.9070   61.9679 N.3     1  ZINC000077537368   -0.5300
     17 C17       -12.8272    0.3588   62.4080 C.3     1  ZINC000077537368    0.0900
     18 C18       -11.6800    0.0718   63.3421 C.ar    1  ZINC000077537368   -0.0500
     19 C19       -10.5696   -0.6119   62.8793 C.ar    1  ZINC000077537368   -0.1200
     20 C20        -9.5161   -0.8783   63.7291 C.ar    1  ZINC000077537368   -0.0700
     21 C21        -9.5719   -0.4559   65.0588 C.ar    1  ZINC000077537368   -0.0300
     22 C22        -8.4817   -0.7285   65.9463 C.1     1  ZINC000077537368    0.2500
     23 N23        -7.6169   -0.9448   66.6505 N.1     1  ZINC000077537368   -0.4100
     24 C24       -10.6953    0.2340   65.5190 C.ar    1  ZINC000077537368   -0.0700
     25 C25       -11.7394    0.4983   64.6570 C.ar    1  ZINC000077537368   -0.1000
     26 C26       -14.7379   -1.1159   62.6008 C.3     1  ZINC000077537368    0.0400
     27 C27       -15.2496   -2.5146   62.2600 C.3     1  ZINC000077537368    0.1200
     28 H28       -17.2587   -0.4992   58.1798 H       1  ZINC000077537368    0.0800
     29 H29       -18.5547   -1.2756   57.2386 H       1  ZINC000077537368    0.1000
     30 H30       -18.3895   -1.6187   58.9773 H       1  ZINC000077537368    0.1100
     31 H31       -13.2544   -4.2209   55.8758 H       1  ZINC000077537368    0.0600
     32 H32       -13.5517   -4.6865   54.1837 H       1  ZINC000077537368    0.0600
     33 H33       -14.0711   -3.0887   54.7714 H       1  ZINC000077537368    0.0600
     34 H34       -16.0944   -6.6173   56.0979 H       1  ZINC000077537368    0.0600
     35 H35       -14.7333   -6.7472   54.9582 H       1  ZINC000077537368    0.0600
     36 H36       -14.4360   -6.2815   56.6504 H       1  ZINC000077537368    0.0600
     37 H37       -16.3989   -3.5600   53.9960 H       1  ZINC000077537368    0.0600
     38 H38       -15.8795   -5.1579   53.4082 H       1  ZINC000077537368    0.0600
     39 H39       -17.2407   -5.0281   54.5478 H       1  ZINC000077537368    0.0600
     40 H40       -14.9164   -4.9886   58.3618 H       1  ZINC000077537368    0.1700
     41 H41       -13.2209   -3.0891   60.3259 H       1  ZINC000077537368    0.0800
     42 H42       -14.1781   -2.3709   59.0035 H       1  ZINC000077537368    0.1200
     43 H43       -12.5560   -0.7484   60.0632 H       1  ZINC000077537368    0.0900
     44 H44       -14.2533   -0.2196   60.1617 H       1  ZINC000077537368    0.0400
     45 H45       -12.4609    0.9079   61.5407 H       1  ZINC000077537368    0.0900
     46 H46       -13.5770    0.9565   62.9264 H       1  ZINC000077537368    0.0500
     47 H47       -10.5278   -0.9381   61.8506 H       1  ZINC000077537368    0.1300
     48 H48        -8.6503   -1.4127   63.3668 H       1  ZINC000077537368    0.1300
     49 H49       -10.7448    0.5636   66.5462 H       1  ZINC000077537368    0.1300
     50 H50       -12.6087    1.0321   65.0115 H       1  ZINC000077537368    0.1400
     51 H51       -14.6392   -1.0167   63.6818 H       1  ZINC000077537368    0.1000
     52 H52       -15.4439   -0.3730   62.2299 H       1  ZINC000077537368    0.0400
     53 H53       -16.2679   -2.6323   62.6305 H       1  ZINC000077537368    0.1000
     54 H54       -14.6019   -3.2629   62.7168 H       1  ZINC000077537368    0.0800
@<TRIPOS>BOND
     1     1     2    1
     2     1    28    1
     3     1    29    1
     4     1    30    1
     5     2    10    1
     6     2     3    1
     7     3     4    2
     8     4     5    1
     9     4     9    1
    10     5     6    1
    11     5     7    1
    12     5     8    1
    13     6    31    1
    14     6    32    1
    15     6    33    1
    16     7    34    1
    17     7    35    1
    18     7    36    1
    19     8    37    1
    20     8    38    1
    21     8    39    1
    22     9    10    2
    23     9    40    1
    24    10    11    1
    25    11    12    2
    26    11    13   am
    27    13    27    1
    28    13    14    1
    29    14    15    1
    30    14    41    1
    31    14    42    1
    32    15    16    1
    33    15    43    1
    34    15    44    1
    35    16    17    1
    36    16    26    1
    37    17    18    1
    38    17    45    1
    39    17    46    1
    40    18    25   ar
    41    18    19   ar
    42    19    20   ar
    43    19    47    1
    44    20    21   ar
    45    20    48    1
    46    21    22    1
    47    21    24   ar
    48    22    23    3
    49    24    25   ar
    50    24    49    1
    51    25    50    1
    52    26    27    1
    53    26    51    1
    54    26    52    1
    55    27    53    1
    56    27    54    1
@<TRIPOS>SUBSTRUCTURE
     1 ZINC000077537368        1 TEMP              0 ****  ****    0 ROOT


##########                                Name:    ZINC000965273005
##########                DOCK_Rotatable_Bonds:                   7
##########                         Heavy_Atoms:                  27
##########                    Molecular_Weight:             368.436
##########                DOCK_Rotatable_Bonds:                   7
##########                       Formal_Charge:           0.0100003
##########                     HBond_Acceptors:                   7
##########                        HBond_Donors:                   2
##########                         Heavy_Atoms:                  27
##########                          Grid_Score:          -25.809584
##########                     Grid_vdw_energy:          -24.825663
##########                      Grid_es_energy:           -0.983922
##########           Internal_energy_repulsive:            8.854175

@<TRIPOS>MOLECULE
ZINC000965273005
 51 54 1 0 0
SMALL
USER_CHARGES


@<TRIPOS>ATOM
      1 C1        -11.1442    1.6824   56.3468 C.3     1  ZINC000965273005   -0.1200
      2 C2        -10.2842    1.1313   55.2388 C.ar    1  ZINC000965273005   -0.0300
      3 C3         -8.9826    1.5643   55.0935 C.ar    1  ZINC000965273005   -0.1200
      4 C4         -8.1916    1.0593   54.0766 C.ar    1  ZINC000965273005   -0.0900
      5 C5         -8.6995    0.1175   53.1998 C.ar    1  ZINC000965273005   -0.1300
      6 C6         -9.9997   -0.3242   53.3341 C.ar    1  ZINC000965273005   -0.0900
      7 C7        -10.8011    0.1772   54.3607 C.ar    1  ZINC000965273005   -0.1300
      8 C8        -12.1954   -0.2915   54.5105 C.2     1  ZINC000965273005    0.5800
      9 O9        -13.1113    0.3753   54.0702 O.2     1  ZINC000965273005   -0.5200
     10 N10       -12.4506   -1.4581   55.1352 N.am    1  ZINC000965273005   -0.6100
     11 C11       -11.4403   -2.3589   55.7195 C.3     1  ZINC000965273005    0.0900
     12 C12       -12.2036   -3.1615   56.8024 C.3     1  ZINC000965273005    0.1500
     13 H13       -11.7197   -4.1197   56.9922 H       1  ZINC000965273005    0.1200
     14 N14       -12.3300   -2.3863   58.0391 N.am    1  ZINC000965273005   -0.7100
     15 C15       -11.7975   -2.8545   59.1853 C.2     1  ZINC000965273005    0.6000
     16 O16       -11.2134   -3.9211   59.1933 O.2     1  ZINC000965273005   -0.5400
     17 C17       -11.9233   -2.0736   60.4294 C.2     1  ZINC000965273005   -0.2800
     18 C18       -10.9082   -1.4042   61.0829 C.2     1  ZINC000965273005    0.1000
     19 N19       -11.4433   -0.8245   62.1693 N.pl3   1  ZINC000965273005   -0.3600
     20 C20       -10.7196   -0.0113   63.1497 C.3     1  ZINC000965273005    0.1000
     21 N21       -12.8089   -1.1275   62.2068 N.2     1  ZINC000965273005   -0.3000
     22 C22       -13.1066   -1.8652   61.1730 C.2     1  ZINC000965273005    0.1700
     23 C23       -14.4711   -2.4087   60.8363 C.3     1  ZINC000965273005   -0.0800
     24 C24       -15.3664   -2.8404   61.9996 C.3     1  ZINC000965273005   -0.1700
     25 C25       -15.6845   -1.5609   61.2234 C.3     1  ZINC000965273005   -0.1600
     26 C26       -13.5858   -3.3606   56.1262 C.3     1  ZINC000965273005    0.0900
     27 H27       -13.5629   -4.2113   55.4450 H       1  ZINC000965273005    0.0900
     28 O28       -14.6097   -3.5295   57.1086 O.3     1  ZINC000965273005   -0.5500
     29 C29       -13.7831   -2.0402   55.3525 C.3     1  ZINC000965273005    0.0600
     30 H30       -11.1032    1.0128   57.2059 H       1  ZINC000965273005    0.0800
     31 H31       -10.7773    2.6672   56.6360 H       1  ZINC000965273005    0.0700
     32 H32       -12.1742    1.7658   56.0001 H       1  ZINC000965273005    0.0700
     33 H33        -8.5802    2.2994   55.7748 H       1  ZINC000965273005    0.1300
     34 H34        -7.1734    1.4022   53.9669 H       1  ZINC000965273005    0.1300
     35 H35        -8.0769   -0.2727   52.4083 H       1  ZINC000965273005    0.1300
     36 H36       -10.3951   -1.0593   52.6486 H       1  ZINC000965273005    0.1300
     37 H37       -11.0449   -3.0306   54.9576 H       1  ZINC000965273005    0.0900
     38 H38       -10.6344   -1.7817   56.1728 H       1  ZINC000965273005    0.0900
     39 H39       -12.7970   -1.5361   58.0330 H       1  ZINC000965273005    0.4000
     40 H40        -9.8736   -1.3562   60.7769 H       1  ZINC000965273005    0.1800
     41 H41       -10.7429    1.0343   62.8426 H       1  ZINC000965273005    0.0800
     42 H42       -11.1924   -0.1137   64.1265 H       1  ZINC000965273005    0.1000
     43 H43        -9.6852   -0.3495   63.2095 H       1  ZINC000965273005    0.0900
     44 H44       -14.5334   -2.9841   59.9126 H       1  ZINC000965273005    0.1400
     45 H45       -16.0176   -3.7001   61.8414 H       1  ZINC000965273005    0.1000
     46 H46       -14.9683   -2.7312   63.0084 H       1  ZINC000965273005    0.1000
     47 H47       -15.4957   -0.6099   61.7216 H       1  ZINC000965273005    0.0900
     48 H48       -16.5450   -1.5787   60.5546 H       1  ZINC000965273005    0.1000
     49 H49       -14.6936   -2.7859   57.7210 H       1  ZINC000965273005    0.3900
     50 H50       -14.4006   -1.3574   55.9359 H       1  ZINC000965273005    0.0800
     51 H51       -14.2557   -2.2410   54.3909 H       1  ZINC000965273005    0.0800
@<TRIPOS>BOND
     1     1     2    1
     2     1    30    1
     3     1    31    1
     4     1    32    1
     5     2     7   ar
     6     2     3   ar
     7     3     4   ar
     8     3    33    1
     9     4     5   ar
    10     4    34    1
    11     5     6   ar
    12     5    35    1
    13     6     7   ar
    14     6    36    1
    15     7     8    1
    16     8     9    2
    17     8    10   am
    18    10    29    1
    19    10    11    1
    20    11    12    1
    21    11    37    1
    22    11    38    1
    23    12    13    1
    24    12    14    1
    25    12    26    1
    26    14    15   am
    27    14    39    1
    28    15    16    2
    29    15    17    1
    30    17    22    1
    31    17    18    2
    32    18    19    1
    33    18    40    1
    34    19    20    1
    35    19    21    1
    36    20    41    1
    37    20    42    1
    38    20    43    1
    39    21    22    2
    40    22    23    1
    41    23    25    1
    42    23    24    1
    43    23    44    1
    44    24    25    1
    45    24    45    1
    46    24    46    1
    47    25    47    1
    48    25    48    1
    49    26    27    1
    50    26    28    1
    51    26    29    1
    52    28    49    1
    53    29    50    1
    54    29    51    1
@<TRIPOS>SUBSTRUCTURE
     1 ZINC000965273005        1 TEMP              0 ****  ****    0 ROOT


##########                                Name:    ZINC000186105981
##########                DOCK_Rotatable_Bonds:                   6
##########                         Heavy_Atoms:                  26
##########                    Molecular_Weight:             396.873
##########                DOCK_Rotatable_Bonds:                   6
##########                       Formal_Charge:          -0.0400003
##########                     HBond_Acceptors:                   9
##########                        HBond_Donors:                   1
##########                         Heavy_Atoms:                  26
##########                          Grid_Score:          -25.744799
##########                     Grid_vdw_energy:          -25.285284
##########                      Grid_es_energy:           -0.459515
##########           Internal_energy_repulsive:           22.247946

@<TRIPOS>MOLECULE
ZINC000186105981
 44 46 1 0 0
SMALL
USER_CHARGES


@<TRIPOS>ATOM
      1 C1         -9.4385   -1.6679   61.1057 C.3     1  ZINC000186105981   -0.1400
      2 C2        -10.4645   -1.4042   60.0016 C.3     1  ZINC000186105981   -0.1100
      3 C3         -9.8984   -1.8680   58.6580 C.3     1  ZINC000186105981   -0.1600
      4 C4        -11.7508   -2.1745   60.3062 C.3     1  ZINC000186105981    0.1600
      5 H5        -11.5005   -3.1432   60.7387 H       1  ZINC000186105981    0.1200
      6 C6        -12.5276   -2.3793   59.0312 C.2     1  ZINC000186105981    0.4900
      7 O7        -12.9540   -1.4221   58.4205 O.2     1  ZINC000186105981   -0.4300
      8 N8        -12.7486   -3.6260   58.5695 N.am    1  ZINC000186105981   -0.6300
      9 C9        -13.4650   -3.8148   57.3938 C.2     1  ZINC000186105981    0.2400
     10 N10       -13.0253   -3.6059   56.1855 N.2     1  ZINC000186105981   -0.2600
     11 N11       -13.8137   -3.8306   55.2273 N.2     1  ZINC000186105981   -0.2000
     12 C12       -15.0117   -4.2559   55.5157 C.2     1  ZINC000186105981    0.0300
     13 C13       -16.0789   -4.5767   54.5448 C.ar    1  ZINC000186105981   -0.0500
     14 C14       -16.9603   -3.5808   54.1157 C.ar    1  ZINC000186105981    0.1300
     15 F15       -16.8398   -2.3205   54.5874 F       1  ZINC000186105981   -0.1200
     16 C16       -17.9555   -3.8886   53.2072 C.ar    1  ZINC000186105981   -0.1400
     17 C17       -18.0795   -5.1782   52.7233 C.ar    1  ZINC000186105981   -0.0600
     18 C18       -17.2103   -6.1690   53.1444 C.ar    1  ZINC000186105981   -0.1200
     19 C19       -16.2077   -5.8754   54.0471 C.ar    1  ZINC000186105981    0.0200
     20 Cl20      -15.1185   -7.1205   54.5732 Cl      1  ZINC000186105981   -0.0100
     21 S21       -15.1297   -4.3878   57.2715 S.3     1  ZINC000186105981    0.1200
     22 N22       -12.5639   -1.4111   61.2561 N.am    1  ZINC000186105981   -0.6100
     23 C23       -12.1656   -0.1250   61.8406 C.3     1  ZINC000186105981    0.1000
     24 C24       -13.4650    0.4917   62.4040 C.3     1  ZINC000186105981   -0.1300
     25 C25       -14.3253   -0.7669   62.6620 C.3     1  ZINC000186105981   -0.1600
     26 C26       -13.7730   -1.7955   61.7000 C.2     1  ZINC000186105981    0.5200
     27 O27       -14.3360   -2.8213   61.3812 O.2     1  ZINC000186105981   -0.5000
     28 H28        -8.5221   -1.1191   60.8886 H       1  ZINC000186105981    0.0600
     29 H29        -9.8418   -1.3375   62.0628 H       1  ZINC000186105981    0.0600
     30 H30        -9.2208   -2.7349   61.1520 H       1  ZINC000186105981    0.0600
     31 H31       -10.6822   -0.3372   59.9553 H       1  ZINC000186105981    0.0900
     32 H32        -9.7682   -2.9502   58.6726 H       1  ZINC000186105981    0.0600
     33 H33       -10.5886   -1.5957   57.8595 H       1  ZINC000186105981    0.0600
     34 H34        -8.9349   -1.3886   58.4846 H       1  ZINC000186105981    0.0700
     35 H35       -12.4076   -4.3916   59.0580 H       1  ZINC000186105981    0.4200
     36 H36       -18.6378   -3.1204   52.8746 H       1  ZINC000186105981    0.1500
     37 H37       -18.8588   -5.4131   52.0135 H       1  ZINC000186105981    0.1500
     38 H38       -17.3136   -7.1740   52.7624 H       1  ZINC000186105981    0.1500
     39 H39       -11.4442   -0.2824   62.6424 H       1  ZINC000186105981    0.0700
     40 H40       -11.7422    0.5230   61.0732 H       1  ZINC000186105981    0.0800
     41 H41       -13.2713    1.0288   63.3325 H       1  ZINC000186105981    0.0900
     42 H42       -13.9378    1.1435   61.6694 H       1  ZINC000186105981    0.0800
     43 H43       -14.2108   -1.1027   63.6927 H       1  ZINC000186105981    0.1100
     44 H44       -15.3733   -0.5649   62.4398 H       1  ZINC000186105981    0.1000
@<TRIPOS>BOND
     1     1     2    1
     2     1    28    1
     3     1    29    1
     4     1    30    1
     5     2     3    1
     6     2     4    1
     7     2    31    1
     8     3    32    1
     9     3    33    1
    10     3    34    1
    11     4     5    1
    12     4     6    1
    13     4    22    1
    14     6     7    2
    15     6     8   am
    16     8     9    1
    17     8    35    1
    18     9    21    1
    19     9    10    2
    20    10    11    1
    21    11    12    2
    22    12    13    1
    23    12    21    1
    24    13    19   ar
    25    13    14   ar
    26    14    15    1
    27    14    16   ar
    28    16    17   ar
    29    16    36    1
    30    17    18   ar
    31    17    37    1
    32    18    19   ar
    33    18    38    1
    34    19    20    1
    35    22    26   am
    36    22    23    1
    37    23    24    1
    38    23    39    1
    39    23    40    1
    40    24    25    1
    41    24    41    1
    42    24    42    1
    43    25    26    1
    44    25    43    1
    45    25    44    1
    46    26    27    2
@<TRIPOS>SUBSTRUCTURE
     1 ZINC000186105981        1 TEMP              0 ****  ****    0 ROOT


##########                                Name:    ZINC000854500114
##########                DOCK_Rotatable_Bonds:                   7
##########                         Heavy_Atoms:                  24
##########                    Molecular_Weight:             399.288
##########                DOCK_Rotatable_Bonds:                   7
##########                       Formal_Charge:          -0.0399992
##########                     HBond_Acceptors:                   7
##########                        HBond_Donors:                   2
##########                         Heavy_Atoms:                  24
##########                          Grid_Score:          -25.725527
##########                     Grid_vdw_energy:          -26.123671
##########                      Grid_es_energy:            0.398144
##########           Internal_energy_repulsive:           74.670509

@<TRIPOS>MOLECULE
ZINC000854500114
 47 49 1 0 0
SMALL
USER_CHARGES


@<TRIPOS>ATOM
      1 O1        -11.0305    0.3296   52.5788 O.2     1  ZINC000854500114   -0.5800
      2 C2        -10.6430    0.1403   53.7149 C.2     1  ZINC000854500114    0.6600
      3 N3         -9.5688    0.8081   54.1805 N.am    1  ZINC000854500114   -0.7100
      4 C4         -8.8648    1.7577   53.3151 C.3     1  ZINC000854500114    0.1600
      5 C5         -8.1222    2.8035   54.1722 C.3     1  ZINC000854500114   -0.1400
      6 C6         -6.6798    2.2497   54.2815 C.3     1  ZINC000854500114   -0.1300
      7 C7         -6.4363    1.6500   52.8743 C.3     1  ZINC000854500114   -0.1300
      8 C8         -7.7930    1.0243   52.4900 C.3     1  ZINC000854500114   -0.1300
      9 O9        -11.2899   -0.7323   54.5102 O.3     1  ZINC000854500114   -0.3600
     10 C10       -10.8327   -0.8356   55.8845 C.3     1  ZINC000854500114    0.1000
     11 C11       -11.6466   -1.9066   56.6135 C.3     1  ZINC000854500114    0.1500
     12 H12       -11.4449   -2.8825   56.1721 H       1  ZINC000854500114    0.0900
     13 C13       -13.1401   -1.5873   56.4932 C.3     1  ZINC000854500114   -0.1300
     14 C14       -13.9399   -2.5808   57.3389 C.3     1  ZINC000854500114   -0.1200
     15 C15       -13.5340   -2.4454   58.8082 C.3     1  ZINC000854500114   -0.1400
     16 C16       -12.0450   -2.7745   58.9548 C.3     1  ZINC000854500114    0.0900
     17 N17       -11.2768   -1.9234   58.0354 N.am    1  ZINC000854500114   -0.6100
     18 C18       -10.2562   -1.1689   58.4889 C.2     1  ZINC000854500114    0.5900
     19 O19        -9.6282   -0.4686   57.7178 O.2     1  ZINC000854500114   -0.4900
     20 C20        -9.9018   -1.1924   59.9170 C.2     1  ZINC000854500114   -0.0300
     21 C21       -10.4561   -0.4204   60.9231 C.2     1  ZINC000854500114   -0.1200
     22 C22        -9.7939   -0.8052   62.0921 C.2     1  ZINC000854500114    0.0200
     23 Br23      -10.1001   -0.1125   63.8249 Br      1  ZINC000854500114    0.0400
     24 N24        -8.9242   -1.7306   61.7744 N.2     1  ZINC000854500114   -0.2400
     25 N25        -8.9640   -1.9846   60.5160 N.pl3   1  ZINC000854500114   -0.3700
     26 H26        -9.2618    0.6599   55.0886 H       1  ZINC000854500114    0.4000
     27 H27        -9.5732    2.2531   52.6510 H       1  ZINC000854500114    0.0900
     28 H28        -8.1218    3.7734   53.6749 H       1  ZINC000854500114    0.0800
     29 H29        -8.5772    2.8801   55.1597 H       1  ZINC000854500114    0.0700
     30 H30        -5.9721    3.0531   54.4867 H       1  ZINC000854500114    0.0700
     31 H31        -6.6200    1.4761   55.0469 H       1  ZINC000854500114    0.0700
     32 H32        -6.1637    2.4337   52.1676 H       1  ZINC000854500114    0.0700
     33 H33        -5.6611    0.8848   52.9148 H       1  ZINC000854500114    0.0700
     34 H34        -7.7965   -0.0382   52.7334 H       1  ZINC000854500114    0.0700
     35 H35        -7.9806    1.1645   51.4254 H       1  ZINC000854500114    0.0800
     36 H36        -9.7779   -1.1097   55.8969 H       1  ZINC000854500114    0.1000
     37 H37       -10.9646    0.1239   56.3844 H       1  ZINC000854500114    0.0700
     38 H38       -13.3254   -0.5742   56.8499 H       1  ZINC000854500114    0.0800
     39 H39       -13.4464   -1.6679   55.4502 H       1  ZINC000854500114    0.0900
     40 H40       -15.0045   -2.3712   57.2354 H       1  ZINC000854500114    0.0800
     41 H41       -13.7350   -3.5956   56.9976 H       1  ZINC000854500114    0.0700
     42 H42       -13.7155   -1.4242   59.1431 H       1  ZINC000854500114    0.0700
     43 H43       -14.1207   -3.1369   59.4130 H       1  ZINC000854500114    0.0800
     44 H44       -11.7280   -2.5842   59.9802 H       1  ZINC000854500114    0.0800
     45 H45       -11.8762   -3.8223   58.7065 H       1  ZINC000854500114    0.0800
     46 H46       -11.2347    0.3217   60.8256 H       1  ZINC000854500114    0.1700
     47 H47        -8.4083   -2.6355   60.0594 H       1  ZINC000854500114    0.4500
@<TRIPOS>BOND
     1     1     2    2
     2     2     3   am
     3     2     9    1
     4     3     4    1
     5     3    26    1
     6     4     8    1
     7     4     5    1
     8     4    27    1
     9     5     6    1
    10     5    28    1
    11     5    29    1
    12     6     7    1
    13     6    30    1
    14     6    31    1
    15     7     8    1
    16     7    32    1
    17     7    33    1
    18     8    34    1
    19     8    35    1
    20     9    10    1
    21    10    11    1
    22    10    36    1
    23    10    37    1
    24    11    12    1
    25    11    17    1
    26    11    13    1
    27    13    14    1
    28    13    38    1
    29    13    39    1
    30    14    15    1
    31    14    40    1
    32    14    41    1
    33    15    16    1
    34    15    42    1
    35    15    43    1
    36    16    17    1
    37    16    44    1
    38    16    45    1
    39    17    18   am
    40    18    19    2
    41    18    20    1
    42    20    25    1
    43    20    21    2
    44    21    22    1
    45    21    46    1
    46    22    23    1
    47    22    24    2
    48    24    25    1
    49    25    47    1
@<TRIPOS>SUBSTRUCTURE
     1 ZINC000854500114        1 TEMP              0 ****  ****    0 ROOT


##########                                Name:    ZINC000561219098
##########                DOCK_Rotatable_Bonds:                   4
##########                         Heavy_Atoms:                  28
##########                    Molecular_Weight:             423.273
##########                DOCK_Rotatable_Bonds:                   4
##########                       Formal_Charge:          0.00999953
##########                     HBond_Acceptors:                   9
##########                        HBond_Donors:                   1
##########                         Heavy_Atoms:                  28
##########                          Grid_Score:          -25.684515
##########                     Grid_vdw_energy:          -23.478003
##########                      Grid_es_energy:           -2.206513
##########           Internal_energy_repulsive:           10.241397

@<TRIPOS>MOLECULE
ZINC000561219098
 45 48 1 0 0
SMALL
USER_CHARGES


@<TRIPOS>ATOM
      1 C1        -12.9104    0.9768   50.2593 C.3     1  ZINC000561219098    0.0700
      2 N2        -12.8088    1.5349   51.6099 N.pl3   1  ZINC000561219098   -0.4500
      3 C3        -13.4262    2.6701   52.0467 C.2     1  ZINC000561219098   -0.0100
      4 C4        -13.0984    2.8652   53.3379 C.2     1  ZINC000561219098   -0.1700
      5 C5        -12.2393    1.8044   53.7208 C.2     1  ZINC000561219098   -0.1100
      6 C6        -11.6267    1.6044   55.0590 C.2     1  ZINC000561219098    0.1600
      7 N7        -11.8410    2.3506   56.1228 N.2     1  ZINC000561219098   -0.2700
      8 N8        -11.0849    1.8434   57.1867 N.pl3   1  ZINC000561219098   -0.4700
      9 C9        -10.3964    0.7533   56.7315 C.2     1  ZINC000561219098    0.0300
     10 C10        -9.4774   -0.0881   57.5151 C.2     1  ZINC000561219098    0.5900
     11 O11        -8.2771   -0.0087   57.3350 O.2     1  ZINC000561219098   -0.5000
     12 N12        -9.9659   -0.9465   58.4320 N.am    1  ZINC000561219098   -0.6100
     13 C13        -9.0671   -1.7978   59.2274 C.3     1  ZINC000561219098    0.0500
     14 C14        -9.5667   -3.2443   59.1384 C.3     1  ZINC000561219098    0.0500
     15 O15       -10.9529   -3.2857   59.4861 O.3     1  ZINC000561219098   -0.3700
     16 C16       -11.7994   -2.5423   58.6060 C.3     1  ZINC000561219098    0.1200
     17 H17       -11.6761   -2.9084   57.5868 H       1  ZINC000561219098    0.0900
     18 C18       -13.2359   -2.7081   59.0302 C.ar    1  ZINC000561219098   -0.0500
     19 C19       -13.5794   -2.5970   60.3641 C.ar    1  ZINC000561219098   -0.1000
     20 C20       -14.8990   -2.7488   60.7540 C.ar    1  ZINC000561219098    0.1200
     21 F21       -15.2353   -2.6398   62.0580 F       1  ZINC000561219098   -0.1200
     22 C22       -15.8747   -3.0121   59.8063 C.ar    1  ZINC000561219098   -0.0600
     23 Cl23      -17.5300   -3.2022   60.2938 Cl      1  ZINC000561219098   -0.0300
     24 C24       -15.5294   -3.1231   58.4717 C.ar    1  ZINC000561219098   -0.0700
     25 C25       -14.2113   -2.9659   58.0830 C.ar    1  ZINC000561219098   -0.0300
     26 Cl26      -13.7783   -3.1047   56.4076 Cl      1  ZINC000561219098   -0.0400
     27 C27       -11.4137   -1.0558   58.6717 C.3     1  ZINC000561219098    0.0900
     28 C28       -10.7273    0.5854   55.4043 C.2     1  ZINC000561219098   -0.1700
     29 C29       -12.0871    1.0011   52.6346 C.2     1  ZINC000561219098    0.0300
     30 H30       -13.7536    0.2875   50.2134 H       1  ZINC000561219098    0.0800
     31 H31       -13.0617    1.7842   49.5429 H       1  ZINC000561219098    0.0900
     32 H32       -11.9914    0.4432   50.0165 H       1  ZINC000561219098    0.0900
     33 H33       -14.0696    3.3055   51.4562 H       1  ZINC000561219098    0.1700
     34 H34       -13.4289    3.6793   53.9659 H       1  ZINC000561219098    0.1400
     35 H35       -11.0545    2.2024   58.0872 H       1  ZINC000561219098    0.4400
     36 H36        -8.0541   -1.7342   58.8299 H       1  ZINC000561219098    0.1000
     37 H37        -9.0753   -1.4698   60.2669 H       1  ZINC000561219098    0.0900
     38 H38        -9.4353   -3.6130   58.1211 H       1  ZINC000561219098    0.0700
     39 H39        -8.9995   -3.8686   59.8288 H       1  ZINC000561219098    0.1200
     40 H40       -12.8182   -2.3920   61.1024 H       1  ZINC000561219098    0.1600
     41 H41       -16.2895   -3.3288   57.7325 H       1  ZINC000561219098    0.1600
     42 H42       -11.6597   -0.6558   59.6553 H       1  ZINC000561219098    0.0900
     43 H43       -11.9542   -0.5020   57.9039 H       1  ZINC000561219098    0.1100
     44 H44       -10.3557   -0.1870   54.7472 H       1  ZINC000561219098    0.1600
     45 H45       -11.4919    0.1009   52.5898 H       1  ZINC000561219098    0.1700
@<TRIPOS>BOND
     1     1     2    1
     2     1    30    1
     3     1    31    1
     4     1    32    1
     5     2    29    1
     6     2     3    1
     7     3     4    2
     8     3    33    1
     9     4     5    1
    10     4    34    1
    11     5     6    1
    12     5    29    2
    13     6    28    1
    14     6     7    2
    15     7     8    1
    16     8     9    1
    17     8    35    1
    18     9    10    1
    19     9    28    2
    20    10    11    2
    21    10    12   am
    22    12    27    1
    23    12    13    1
    24    13    14    1
    25    13    36    1
    26    13    37    1
    27    14    15    1
    28    14    38    1
    29    14    39    1
    30    15    16    1
    31    16    17    1
    32    16    18    1
    33    16    27    1
    34    18    25   ar
    35    18    19   ar
    36    19    20   ar
    37    19    40    1
    38    20    21    1
    39    20    22   ar
    40    22    23    1
    41    22    24   ar
    42    24    25   ar
    43    24    41    1
    44    25    26    1
    45    27    42    1
    46    27    43    1
    47    28    44    1
    48    29    45    1
@<TRIPOS>SUBSTRUCTURE
     1 ZINC000561219098        1 TEMP              0 ****  ****    0 ROOT


##########                                Name:    ZINC000277311370
##########                DOCK_Rotatable_Bonds:                   5
##########                         Heavy_Atoms:                  17
##########                    Molecular_Weight:             361.036
##########                DOCK_Rotatable_Bonds:                   5
##########                       Formal_Charge:        -7.45058e-08
##########                     HBond_Acceptors:                   4
##########                        HBond_Donors:                   1
##########                         Heavy_Atoms:                  17
##########                          Grid_Score:          -25.657194
##########                     Grid_vdw_energy:          -25.586746
##########                      Grid_es_energy:           -0.070448
##########           Internal_energy_repulsive:            8.317668

@<TRIPOS>MOLECULE
ZINC000277311370
 28 28 1 0 0
SMALL
USER_CHARGES


@<TRIPOS>ATOM
      1 C1          3.2171    0.2886   41.9327 C.3     1  ZINC000277311370   -0.1500
      2 C2          2.7803    0.3603   43.3973 C.3     1  ZINC000277311370   -0.1000
      3 C3          3.7471    1.2556   44.1747 C.3     1  ZINC000277311370   -0.1600
      4 C4          1.3677    0.9422   43.4801 C.3     1  ZINC000277311370    0.2500
      5 H5          0.6788    0.3043   42.9263 H       1  ZINC000277311370    0.1400
      6 C6          1.3592    2.2945   42.8988 C.1     1  ZINC000277311370    0.1900
      7 N7          1.3526    3.3381   42.4502 N.1     1  ZINC000277311370   -0.4100
      8 N8          0.9493    1.0108   44.8825 N.am    1  ZINC000277311370   -0.7000
      9 C9         -0.3439    1.2336   45.1899 C.2     1  ZINC000277311370    0.5700
     10 O10        -1.1632    1.3760   44.3037 O.2     1  ZINC000277311370   -0.4900
     11 C11        -0.7665    1.3047   46.6074 C.ar    1  ZINC000277311370    0.1100
     12 N12        -0.8860    2.4866   47.2003 N.ar    1  ZINC000277311370   -0.4300
     13 C13        -1.2592    2.5935   48.4575 C.ar    1  ZINC000277311370    0.1300
     14 Br14       -1.4102    4.3071   49.2428 Br      1  ZINC000277311370    0.0200
     15 C15        -1.5437    1.4665   49.2146 C.ar    1  ZINC000277311370   -0.1100
     16 C16        -1.4319    0.2132   48.6354 C.ar    1  ZINC000277311370   -0.0400
     17 C17        -1.0411    0.1305   47.3067 C.ar    1  ZINC000277311370   -0.0900
     18 Br18       -0.8704   -1.5518   46.4601 Br      1  ZINC000277311370    0.0300
     19 H19         4.2235   -0.1259   41.8736 H       1  ZINC000277311370    0.0700
     20 H20         2.5283   -0.3492   41.3789 H       1  ZINC000277311370    0.0700
     21 H21         3.2108    1.2901   41.5023 H       1  ZINC000277311370    0.0600
     22 H22         2.7866   -0.6411   43.8277 H       1  ZINC000277311370    0.1000
     23 H23         3.7408    2.2570   43.7443 H       1  ZINC000277311370    0.0600
     24 H24         3.4358    1.3067   45.2181 H       1  ZINC000277311370    0.0600
     25 H25         4.7535    0.8411   44.1156 H       1  ZINC000277311370    0.0700
     26 H26         1.6031    0.8959   45.5898 H       1  ZINC000277311370    0.4200
     27 H27        -1.8492    1.5653   50.2457 H       1  ZINC000277311370    0.1600
     28 H28        -1.6480   -0.6793   49.2041 H       1  ZINC000277311370    0.1700
@<TRIPOS>BOND
     1     1     2    1
     2     1    19    1
     3     1    20    1
     4     1    21    1
     5     2     3    1
     6     2     4    1
     7     2    22    1
     8     3    23    1
     9     3    24    1
    10     3    25    1
    11     4     5    1
    12     4     6    1
    13     4     8    1
    14     6     7    3
    15     8     9   am
    16     8    26    1
    17     9    10    2
    18     9    11    1
    19    11    17   ar
    20    11    12   ar
    21    12    13   ar
    22    13    14    1
    23    13    15   ar
    24    15    16   ar
    25    15    27    1
    26    16    17   ar
    27    16    28    1
    28    17    18    1
@<TRIPOS>SUBSTRUCTURE
     1 ZINC000277311370        1 TEMP              0 ****  ****    0 ROOT


##########                                Name:    ZINC000543429378
##########                DOCK_Rotatable_Bonds:                   6
##########                         Heavy_Atoms:                  29
##########                    Molecular_Weight:             406.408
##########                DOCK_Rotatable_Bonds:                   6
##########                       Formal_Charge:           0.0100003
##########                     HBond_Acceptors:                   9
##########                        HBond_Donors:                   1
##########                         Heavy_Atoms:                  29
##########                          Grid_Score:          -25.645094
##########                     Grid_vdw_energy:          -25.175600
##########                      Grid_es_energy:           -0.469493
##########           Internal_energy_repulsive:           29.857542

@<TRIPOS>MOLECULE
ZINC000543429378
 50 53 1 0 0
SMALL
USER_CHARGES


@<TRIPOS>ATOM
      1 O1        -11.1749   -1.7819   54.9771 O.2     1  ZINC000543429378   -0.5100
      2 C2        -11.9239   -0.9221   55.3903 C.2     1  ZINC000543429378    0.5200
      3 N3        -13.1189   -1.2631   55.9120 N.am    1  ZINC000543429378   -0.6600
      4 C4        -13.4978   -2.6087   55.9717 C.ar    1  ZINC000543429378    0.1900
      5 C5        -12.7427   -3.5116   56.7091 C.ar    1  ZINC000543429378   -0.1600
      6 C6        -13.1172   -4.8402   56.7685 C.ar    1  ZINC000543429378   -0.0600
      7 C7        -14.2427   -5.2743   56.0948 C.ar    1  ZINC000543429378   -0.2100
      8 C8        -15.0011   -4.3763   55.3563 C.ar    1  ZINC000543429378    0.1300
      9 O9        -16.1079   -4.8046   54.6941 O.3     1  ZINC000543429378   -0.3100
     10 C10       -15.9454   -5.9153   53.8097 C.3     1  ZINC000543429378    0.6000
     11 F11       -14.6488   -5.9073   53.2843 F       1  ZINC000543429378   -0.1600
     12 F12       -16.1564   -7.1061   54.5129 F       1  ZINC000543429378   -0.1300
     13 F13       -16.8720   -5.8196   52.7660 F       1  ZINC000543429378   -0.1600
     14 C14       -14.6319   -3.0418   55.2989 C.ar    1  ZINC000543429378   -0.1300
     15 C15       -11.5159    0.5272   55.3259 C.3     1  ZINC000543429378    0.0700
     16 H16       -12.4016    1.1605   55.2763 H       1  ZINC000543429378    0.1200
     17 C17       -10.6207    0.7703   54.0799 C.3     1  ZINC000543429378   -0.1200
     18 C18        -9.5904    1.7729   54.6223 C.3     1  ZINC000543429378   -0.1000
     19 H19       -10.0085    2.7784   54.6684 H       1  ZINC000543429378    0.0900
     20 C20        -8.2488    1.7734   53.9093 C.3     1  ZINC000543429378   -0.1100
     21 C21        -7.3271    2.7387   54.6714 C.3     1  ZINC000543429378   -0.1200
     22 C22        -7.1730    2.3283   56.1328 C.3     1  ZINC000543429378   -0.1100
     23 C23        -8.5400    2.1934   56.8241 C.3     1  ZINC000543429378   -0.0900
     24 C24        -9.3609    1.1928   56.0444 C.3     1  ZINC000543429378    0.0700
     25 H25        -8.7977    0.2648   55.9456 H       1  ZINC000543429378    0.0900
     26 N26       -10.7075    0.8795   56.5224 N.3     1  ZINC000543429378   -0.4300
     27 C27       -10.6828   -0.1742   57.4195 C.ar    1  ZINC000543429378    0.5000
     28 N28       -11.6267   -0.2571   58.3456 N.ar    1  ZINC000543429378   -0.5300
     29 C29       -11.6326   -1.2516   59.2179 C.ar    1  ZINC000543429378    0.1800
     30 C30       -10.6359   -2.2126   59.1542 C.ar    1  ZINC000543429378   -0.2500
     31 C31        -9.6641   -2.0953   58.1730 C.ar    1  ZINC000543429378    0.1800
     32 N32        -9.7191   -1.0788   57.3284 N.ar    1  ZINC000543429378   -0.5300
     33 H33       -13.7162   -0.5757   56.2460 H       1  ZINC000543429378    0.4200
     34 H34       -11.8621   -3.1750   57.2360 H       1  ZINC000543429378    0.1400
     35 H35       -12.5288   -5.5409   57.3422 H       1  ZINC000543429378    0.1400
     36 H36       -14.5325   -6.3135   56.1425 H       1  ZINC000543429378    0.1400
     37 H37       -15.2209   -2.3417   54.7250 H       1  ZINC000543429378    0.1500
     38 H38       -10.1363   -0.1528   53.7618 H       1  ZINC000543429378    0.0800
     39 H39       -11.1977    1.2071   53.2647 H       1  ZINC000543429378    0.0900
     40 H40        -7.8237    0.7698   53.9183 H       1  ZINC000543429378    0.0700
     41 H41        -8.3750    2.1145   52.8818 H       1  ZINC000543429378    0.0700
     42 H42        -6.3456    2.7431   54.1972 H       1  ZINC000543429378    0.0600
     43 H43        -7.7476    3.7433   54.6260 H       1  ZINC000543429378    0.0600
     44 H44        -6.6527    1.3717   56.1816 H       1  ZINC000543429378    0.0600
     45 H45        -6.5823    3.0812   56.6544 H       1  ZINC000543429378    0.0700
     46 H46        -8.4048    1.8444   57.8479 H       1  ZINC000543429378    0.0700
     47 H47        -9.0519    3.1557   56.8243 H       1  ZINC000543429378    0.0700
     48 H48       -12.4044   -1.3136   59.9707 H       1  ZINC000543429378    0.1600
     49 H49       -10.6167   -3.0348   59.8543 H       1  ZINC000543429378    0.1400
     50 H50        -8.8734   -2.8272   58.0965 H       1  ZINC000543429378    0.1600
@<TRIPOS>BOND
     1     1     2    2
     2     2     3   am
     3     2    15    1
     4     3     4    1
     5     3    33    1
     6     4    14   ar
     7     4     5   ar
     8     5     6   ar
     9     5    34    1
    10     6     7   ar
    11     6    35    1
    12     7     8   ar
    13     7    36    1
    14     8     9    1
    15     8    14   ar
    16     9    10    1
    17    10    11    1
    18    10    12    1
    19    10    13    1
    20    14    37    1
    21    15    16    1
    22    15    26    1
    23    15    17    1
    24    17    18    1
    25    17    38    1
    26    17    39    1
    27    18    19    1
    28    18    24    1
    29    18    20    1
    30    20    21    1
    31    20    40    1
    32    20    41    1
    33    21    22    1
    34    21    42    1
    35    21    43    1
    36    22    23    1
    37    22    44    1
    38    22    45    1
    39    23    24    1
    40    23    46    1
    41    23    47    1
    42    24    25    1
    43    24    26    1
    44    26    27    1
    45    27    32   ar
    46    27    28   ar
    47    28    29   ar
    48    29    30   ar
    49    29    48    1
    50    30    31   ar
    51    30    49    1
    52    31    32   ar
    53    31    50    1
@<TRIPOS>SUBSTRUCTURE
     1 ZINC000543429378        1 TEMP              0 ****  ****    0 ROOT


##########                                Name:    ZINC000463741321
##########                DOCK_Rotatable_Bonds:                   7
##########                         Heavy_Atoms:                  26
##########                    Molecular_Weight:             354.467
##########                DOCK_Rotatable_Bonds:                   7
##########                       Formal_Charge:         -6.4075e-07
##########                     HBond_Acceptors:                   4
##########                        HBond_Donors:                   1
##########                         Heavy_Atoms:                  26
##########                          Grid_Score:          -25.642246
##########                     Grid_vdw_energy:          -23.702835
##########                      Grid_es_energy:           -1.939410
##########           Internal_energy_repulsive:           15.896128

@<TRIPOS>MOLECULE
ZINC000463741321
 53 55 1 0 0
SMALL
USER_CHARGES


@<TRIPOS>ATOM
      1 C1         -6.8207    0.2306   67.2523 C.3     1  ZINC000463741321   -0.1500
      2 C2         -7.8082    1.2577   66.6947 C.3     1  ZINC000463741321   -0.1100
      3 H3         -8.2415    1.8283   67.5162 H       1  ZINC000463741321    0.1000
      4 C4         -7.0747    2.2072   65.7454 C.3     1  ZINC000463741321   -0.0900
      5 C5         -5.9628    2.9315   66.5069 C.3     1  ZINC000463741321   -0.0800
      6 C6         -5.2409    3.8673   65.5720 C.ar    1  ZINC000463741321   -0.1200
      7 C7         -5.6712    5.1728   65.4324 C.ar    1  ZINC000463741321   -0.0900
      8 C8         -5.0090    6.0317   64.5746 C.ar    1  ZINC000463741321   -0.1300
      9 C9         -3.9163    5.5852   63.8555 C.ar    1  ZINC000463741321   -0.1000
     10 C10        -3.4842    4.2796   63.9932 C.ar    1  ZINC000463741321   -0.1500
     11 C11        -4.1424    3.4207   64.8567 C.ar    1  ZINC000463741321    0.1000
     12 F12        -3.7210    2.1442   64.9921 F       1  ZINC000463741321   -0.1400
     13 C13        -8.9043    0.5453   65.9451 C.2     1  ZINC000463741321    0.5200
     14 O14        -9.2517   -0.5647   66.2889 O.2     1  ZINC000463741321   -0.5300
     15 N15        -9.4985    1.1415   64.8925 N.am    1  ZINC000463741321   -0.7300
     16 C16       -10.5629    0.4481   64.1626 C.3     1  ZINC000463741321    0.1500
     17 H17       -10.9354   -0.3814   64.7635 H       1  ZINC000463741321    0.1000
     18 C18       -11.7062    1.4253   63.8756 C.3     1  ZINC000463741321   -0.1300
     19 C19       -12.7869    0.7089   63.0609 C.3     1  ZINC000463741321   -0.1200
     20 C20       -12.1700    0.1671   61.7694 C.3     1  ZINC000463741321    0.0600
     21 N21       -11.0821   -0.7630   62.0978 N.3     1  ZINC000463741321   -0.4800
     22 C22       -10.5837   -1.3767   60.9463 C.ar    1  ZINC000463741321    0.1100
     23 C23        -9.9730   -0.6133   59.9593 C.ar    1  ZINC000463741321   -0.1700
     24 C24        -9.4808   -1.2233   58.8224 C.ar    1  ZINC000463741321   -0.0900
     25 C25        -9.5959   -2.5925   58.6654 C.ar    1  ZINC000463741321   -0.1500
     26 C26       -10.2031   -3.3554   59.6459 C.ar    1  ZINC000463741321   -0.0900
     27 C27       -10.6925   -2.7525   60.7880 C.ar    1  ZINC000463741321   -0.1400
     28 C28       -10.0102   -0.0870   62.8397 C.3     1  ZINC000463741321    0.0500
     29 H29        -6.3875   -0.3400   66.4309 H       1  ZINC000463741321    0.0600
     30 H30        -6.0280    0.7459   67.7946 H       1  ZINC000463741321    0.0700
     31 H31        -7.3433   -0.4458   67.9287 H       1  ZINC000463741321    0.0600
     32 H32        -6.6407    1.6365   64.9244 H       1  ZINC000463741321    0.0700
     33 H33        -7.7785    2.9383   65.3474 H       1  ZINC000463741321    0.0700
     34 H34        -6.3969    3.5018   67.3282 H       1  ZINC000463741321    0.0800
     35 H35        -5.2589    2.2005   66.9045 H       1  ZINC000463741321    0.0800
     36 H36        -6.5253    5.5225   65.9931 H       1  ZINC000463741321    0.1300
     37 H37        -5.3462    7.0520   64.4661 H       1  ZINC000463741321    0.1300
     38 H38        -3.4000    6.2569   63.1855 H       1  ZINC000463741321    0.1300
     39 H39        -2.6308    3.9308   63.4307 H       1  ZINC000463741321    0.1400
     40 H40        -9.2215    2.0297   64.6183 H       1  ZINC000463741321    0.4000
     41 H41       -12.1312    1.7752   64.8163 H       1  ZINC000463741321    0.0700
     42 H42       -11.3257    2.2747   63.3084 H       1  ZINC000463741321    0.0600
     43 H43       -13.1945   -0.1169   63.6439 H       1  ZINC000463741321    0.0800
     44 H44       -13.5840    1.4112   62.8168 H       1  ZINC000463741321    0.0800
     45 H45       -12.9337   -0.3559   61.1938 H       1  ZINC000463741321    0.0900
     46 H46       -11.7749    0.9948   61.1805 H       1  ZINC000463741321    0.0500
     47 H47        -9.8836    0.4561   60.0811 H       1  ZINC000463741321    0.1200
     48 H48        -9.0060   -0.6305   58.0547 H       1  ZINC000463741321    0.1200
     49 H49        -9.2107   -3.0669   57.7749 H       1  ZINC000463741321    0.1200
     50 H50       -10.2914   -4.4245   59.5202 H       1  ZINC000463741321    0.1200
     51 H51       -11.1664   -3.3489   61.5536 H       1  ZINC000463741321    0.1300
     52 H52        -9.6248    0.7421   62.2462 H       1  ZINC000463741321    0.0500
     53 H53        -9.2057   -0.7944   63.0407 H       1  ZINC000463741321    0.0900
@<TRIPOS>BOND
     1     1     2    1
     2     1    29    1
     3     1    30    1
     4     1    31    1
     5     2     3    1
     6     2     4    1
     7     2    13    1
     8     4     5    1
     9     4    32    1
    10     4    33    1
    11     5     6    1
    12     5    34    1
    13     5    35    1
    14     6    11   ar
    15     6     7   ar
    16     7     8   ar
    17     7    36    1
    18     8     9   ar
    19     8    37    1
    20     9    10   ar
    21     9    38    1
    22    10    11   ar
    23    10    39    1
    24    11    12    1
    25    13    14    2
    26    13    15   am
    27    15    16    1
    28    15    40    1
    29    16    17    1
    30    16    28    1
    31    16    18    1
    32    18    19    1
    33    18    41    1
    34    18    42    1
    35    19    20    1
    36    19    43    1
    37    19    44    1
    38    20    21    1
    39    20    45    1
    40    20    46    1
    41    21    22    1
    42    21    28    1
    43    22    27   ar
    44    22    23   ar
    45    23    24   ar
    46    23    47    1
    47    24    25   ar
    48    24    48    1
    49    25    26   ar
    50    25    49    1
    51    26    27   ar
    52    26    50    1
    53    27    51    1
    54    28    52    1
    55    28    53    1
@<TRIPOS>SUBSTRUCTURE
     1 ZINC000463741321        1 TEMP              0 ****  ****    0 ROOT


##########                                Name:    ZINC001193456967
##########                DOCK_Rotatable_Bonds:                   3
##########                         Heavy_Atoms:                  27
##########                    Molecular_Weight:             392.451
##########                DOCK_Rotatable_Bonds:                   3
##########                       Formal_Charge:           0.0300002
##########                     HBond_Acceptors:                   8
##########                        HBond_Donors:                   0
##########                         Heavy_Atoms:                  27
##########                          Grid_Score:          -25.616854
##########                     Grid_vdw_energy:          -24.359070
##########                      Grid_es_energy:           -1.257783
##########           Internal_energy_repulsive:           36.892830

@<TRIPOS>MOLECULE
ZINC001193456967
 48 50 1 0 0
SMALL
USER_CHARGES


@<TRIPOS>ATOM
      1 C1        -10.5615    0.7617   64.7097 C.3     1  ZINC001193456967   -0.1400
      2 C2        -10.4464   -0.1039   63.4814 C.ar    1  ZINC001193456967    0.0300
      3 C3         -9.2057   -0.5435   63.0595 C.ar    1  ZINC001193456967   -0.1400
      4 C4         -9.1002   -1.3375   61.9326 C.ar    1  ZINC001193456967    0.0300
      5 C5        -10.2353   -1.6921   61.2283 C.ar    1  ZINC001193456967   -0.6900
      6 S6        -10.1007   -2.7036   59.7919 S.o2    1  ZINC001193456967    2.7100
      7 O7         -8.7377   -3.0951   59.7029 O.2     1  ZINC001193456967   -0.9300
      8 O8        -11.1739   -3.6330   59.8537 O.2     1  ZINC001193456967   -0.9400
      9 N9        -10.3957   -1.7354   58.4812 N.am    1  ZINC001193456967   -1.0000
     10 C10        -9.6186   -0.5411   58.1027 C.3     1  ZINC001193456967    0.1100
     11 C11       -10.5956    0.3176   57.2615 C.3     1  ZINC001193456967   -0.1200
     12 C12       -11.3749   -0.7729   56.4799 C.3     1  ZINC001193456967   -0.0500
     13 H13       -10.8176   -1.0874   55.5975 H       1  ZINC001193456967    0.1000
     14 C14       -12.7443   -0.2762   56.0940 C.ar    1  ZINC001193456967   -0.0800
     15 C15       -13.2914   -0.6351   54.8761 C.ar    1  ZINC001193456967   -0.0800
     16 C16       -14.5471   -0.1801   54.5211 C.ar    1  ZINC001193456967   -0.1500
     17 C17       -15.2576    0.6350   55.3858 C.ar    1  ZINC001193456967    0.1000
     18 F18       -16.4854    1.0800   55.0400 F       1  ZINC001193456967   -0.1400
     19 C19       -14.7089    0.9934   56.6055 C.ar    1  ZINC001193456967   -0.1500
     20 C20       -13.4550    0.5334   56.9604 C.ar    1  ZINC001193456967   -0.0800
     21 C21       -11.4722   -1.9282   57.4985 C.3     1  ZINC001193456967    0.1900
     22 C22       -11.2987   -3.2692   56.7824 C.3     1  ZINC001193456967   -0.1800
     23 C23       -12.8277   -1.8848   58.2067 C.3     1  ZINC001193456967   -0.1800
     24 C24       -11.4764   -1.2535   61.6510 C.ar    1  ZINC001193456967    0.0400
     25 C25       -11.5823   -0.4628   62.7798 C.ar    1  ZINC001193456967   -0.0600
     26 N26       -12.9110    0.0068   63.2324 N.pl3   1  ZINC001193456967    0.0200
     27 O27       -13.1591    0.0771   64.4229 O.2     1  ZINC001193456967   -0.1400
     28 O28       -13.7563    0.3230   62.4145 O.2     1  ZINC001193456967   -0.1500
     29 H29       -10.7832    0.1370   65.5750 H       1  ZINC001193456967    0.1100
     30 H30        -9.6209    1.2877   64.8729 H       1  ZINC001193456967    0.0900
     31 H31       -11.3635    1.4863   64.5696 H       1  ZINC001193456967    0.0800
     32 H32        -8.3188   -0.2665   63.6100 H       1  ZINC001193456967    0.1600
     33 H33        -8.1307   -1.6805   61.6026 H       1  ZINC001193456967    0.1600
     34 H34        -9.3039    0.0042   58.9925 H       1  ZINC001193456967    0.0900
     35 H35        -8.7526   -0.8257   57.5051 H       1  ZINC001193456967    0.0700
     36 H36       -11.2642    0.8910   57.9037 H       1  ZINC001193456967    0.0900
     37 H37       -10.0526    0.9733   56.5808 H       1  ZINC001193456967    0.0900
     38 H38       -12.7369   -1.2709   54.2017 H       1  ZINC001193456967    0.1400
     39 H39       -14.9739   -0.4601   53.5693 H       1  ZINC001193456967    0.1400
     40 H40       -15.2621    1.6295   57.2806 H       1  ZINC001193456967    0.1400
     41 H41       -13.0269    0.8125   57.9118 H       1  ZINC001193456967    0.1300
     42 H42       -10.3230   -3.2985   56.2975 H       1  ZINC001193456967    0.0700
     43 H43       -11.3685   -4.0799   57.5076 H       1  ZINC001193456967    0.0600
     44 H44       -12.0810   -3.3843   56.0322 H       1  ZINC001193456967    0.0800
     45 H45       -13.6256   -1.8774   57.4640 H       1  ZINC001193456967    0.0800
     46 H46       -12.9329   -2.7626   58.8442 H       1  ZINC001193456967    0.0900
     47 H47       -12.8904   -0.9833   58.8162 H       1  ZINC001193456967    0.0700
     48 H48       -12.3634   -1.5308   61.1009 H       1  ZINC001193456967    0.1600
@<TRIPOS>BOND
     1     1     2    1
     2     1    29    1
     3     1    30    1
     4     1    31    1
     5     2    25   ar
     6     2     3   ar
     7     3     4   ar
     8     3    32    1
     9     4     5   ar
    10     4    33    1
    11     5     6    1
    12     5    24   ar
    13     6     7    2
    14     6     8    2
    15     6     9   am
    16     9    21    1
    17     9    10    1
    18    10    11    1
    19    10    34    1
    20    10    35    1
    21    11    12    1
    22    11    36    1
    23    11    37    1
    24    12    13    1
    25    12    14    1
    26    12    21    1
    27    14    20   ar
    28    14    15   ar
    29    15    16   ar
    30    15    38    1
    31    16    17   ar
    32    16    39    1
    33    17    18    1
    34    17    19   ar
    35    19    20   ar
    36    19    40    1
    37    20    41    1
    38    21    22    1
    39    21    23    1
    40    22    42    1
    41    22    43    1
    42    22    44    1
    43    23    45    1
    44    23    46    1
    45    23    47    1
    46    24    25   ar
    47    24    48    1
    48    25    26    1
    49    26    27    2
    50    26    28    2
@<TRIPOS>SUBSTRUCTURE
     1 ZINC001193456967        1 TEMP              0 ****  ****    0 ROOT


##########                                Name:    ZINC001289445798
##########                DOCK_Rotatable_Bonds:                  10
##########                         Heavy_Atoms:                  25
##########                    Molecular_Weight:             352.434
##########                DOCK_Rotatable_Bonds:                  10
##########                       Formal_Charge:          0.00999932
##########                     HBond_Acceptors:                   8
##########                        HBond_Donors:                   2
##########                         Heavy_Atoms:                  25
##########                          Grid_Score:          -25.576731
##########                     Grid_vdw_energy:          -25.029909
##########                      Grid_es_energy:           -0.546822
##########           Internal_energy_repulsive:           15.576207

@<TRIPOS>MOLECULE
ZINC001289445798
 53 54 1 0 0
SMALL
USER_CHARGES


@<TRIPOS>ATOM
      1 C1         -6.7013    0.3612   51.8868 C.3     1  ZINC001289445798   -0.1500
      2 C2         -6.5995    1.4606   52.9458 C.3     1  ZINC001289445798    0.0600
      3 O3         -7.9121    1.8719   53.3332 O.3     1  ZINC001289445798   -0.3700
      4 C4         -8.2283    1.5957   54.6991 C.3     1  ZINC001289445798    0.1100
      5 H5         -7.4936    0.9028   55.1092 H       1  ZINC001289445798    0.0700
      6 C6         -9.6220    0.9701   54.7834 C.3     1  ZINC001289445798   -0.1400
      7 C7         -9.7167    0.1197   56.0240 C.2     1  ZINC001289445798    0.5400
      8 O8         -8.8015    0.1041   56.8198 O.2     1  ZINC001289445798   -0.5200
      9 N9        -10.8182   -0.6235   56.2492 N.am    1  ZINC001289445798   -0.6200
     10 C10       -11.0447   -1.4882   57.4164 C.3     1  ZINC001289445798    0.1000
     11 C11       -12.4461   -2.1143   57.2579 C.3     1  ZINC001289445798    0.1400
     12 H12       -12.3771   -3.1066   56.8121 H       1  ZINC001289445798    0.1200
     13 N13       -13.1358   -2.1749   58.5489 N.am    1  ZINC001289445798   -0.7200
     14 C14       -14.2058   -2.9797   58.7041 C.2     1  ZINC001289445798    0.6000
     15 O15       -14.5996   -3.6546   57.7720 O.2     1  ZINC001289445798   -0.5100
     16 C16       -14.8976   -3.0420   60.0015 C.2     1  ZINC001289445798   -0.0500
     17 C17       -14.4986   -2.4459   61.1852 C.2     1  ZINC001289445798   -0.1400
     18 C18       -15.4750   -2.7931   62.1217 C.2     1  ZINC001289445798    0.0000
     19 N19       -16.3670   -3.5342   61.5156 N.2     1  ZINC001289445798   -0.2700
     20 N20       -16.0654   -3.6948   60.2775 N.pl3   1  ZINC001289445798   -0.3800
     21 C21       -13.1602   -1.1287   56.2955 C.3     1  ZINC001289445798    0.0700
     22 H22       -13.5595   -0.2723   56.8388 H       1  ZINC001289445798    0.0900
     23 O23       -14.1905   -1.7893   55.5576 O.3     1  ZINC001289445798   -0.3700
     24 C24       -15.0295   -0.9050   54.8120 C.3     1  ZINC001289445798    0.0300
     25 C25       -11.9984   -0.6989   55.3689 C.3     1  ZINC001289445798    0.0800
     26 C26        -8.2046    2.8981   55.5016 C.3     1  ZINC001289445798   -0.1100
     27 C27        -6.8314    3.0703   56.1540 C.3     1  ZINC001289445798   -0.1500
     28 C28        -8.4765    4.0783   54.5666 C.3     1  ZINC001289445798   -0.1500
     29 H29        -7.2339    0.7436   51.0161 H       1  ZINC001289445798    0.0600
     30 H30        -5.7001    0.0474   51.5913 H       1  ZINC001289445798    0.0700
     31 H31        -7.2423   -0.4908   52.2984 H       1  ZINC001289445798    0.0600
     32 H32        -6.0669    1.0783   53.8166 H       1  ZINC001289445798    0.0500
     33 H33        -6.0584    2.3127   52.5342 H       1  ZINC001289445798    0.0500
     34 H34       -10.3726    1.7594   54.8258 H       1  ZINC001289445798    0.1100
     35 H35        -9.7958    0.3502   53.9039 H       1  ZINC001289445798    0.1000
     36 H36       -10.2892   -2.2734   57.4481 H       1  ZINC001289445798    0.0800
     37 H37       -11.0046   -0.8954   58.3303 H       1  ZINC001289445798    0.0800
     38 H38       -12.8226   -1.6359   59.2920 H       1  ZINC001289445798    0.4000
     39 H39       -13.6192   -1.8409   61.3497 H       1  ZINC001289445798    0.1700
     40 H40       -15.4905   -2.5021   63.1616 H       1  ZINC001289445798    0.1900
     41 H41       -16.5840   -4.2071   59.6376 H       1  ZINC001289445798    0.4400
     42 H42       -15.7852   -1.4833   54.2803 H       1  ZINC001289445798    0.0900
     43 H43       -15.5180   -0.2076   55.4925 H       1  ZINC001289445798    0.0400
     44 H44       -14.4256   -0.3498   54.0944 H       1  ZINC001289445798    0.0500
     45 H45       -12.2076    0.2743   54.9249 H       1  ZINC001289445798    0.0900
     46 H46       -11.8377   -1.4452   54.5909 H       1  ZINC001289445798    0.0900
     47 H47        -8.9722    2.8627   56.2746 H       1  ZINC001289445798    0.0800
     48 H48        -6.0637    3.1058   55.3810 H       1  ZINC001289445798    0.0600
     49 H49        -6.8145    3.9983   56.7257 H       1  ZINC001289445798    0.0600
     50 H50        -6.6376    2.2296   56.8202 H       1  ZINC001289445798    0.0600
     51 H51        -9.4922    4.0070   54.1775 H       1  ZINC001289445798    0.0600
     52 H52        -8.3632    5.0120   55.1175 H       1  ZINC001289445798    0.0600
     53 H53        -7.7680    4.0567   53.7386 H       1  ZINC001289445798    0.0500
@<TRIPOS>BOND
     1     1     2    1
     2     1    29    1
     3     1    30    1
     4     1    31    1
     5     2     3    1
     6     2    32    1
     7     2    33    1
     8     3     4    1
     9     4     5    1
    10     4     6    1
    11     4    26    1
    12     6     7    1
    13     6    34    1
    14     6    35    1
    15     7     8    2
    16     7     9   am
    17     9    25    1
    18     9    10    1
    19    10    11    1
    20    10    36    1
    21    10    37    1
    22    11    12    1
    23    11    13    1
    24    11    21    1
    25    13    14   am
    26    13    38    1
    27    14    15    2
    28    14    16    1
    29    16    20    1
    30    16    17    2
    31    17    18    1
    32    17    39    1
    33    18    19    2
    34    18    40    1
    35    19    20    1
    36    20    41    1
    37    21    22    1
    38    21    23    1
    39    21    25    1
    40    23    24    1
    41    24    42    1
    42    24    43    1
    43    24    44    1
    44    25    45    1
    45    25    46    1
    46    26    27    1
    47    26    28    1
    48    26    47    1
    49    27    48    1
    50    27    49    1
    51    27    50    1
    52    28    51    1
    53    28    52    1
    54    28    53    1
@<TRIPOS>SUBSTRUCTURE
     1 ZINC001289445798        1 TEMP              0 ****  ****    0 ROOT


##########                                Name:    ZINC000055987960
##########                DOCK_Rotatable_Bonds:                   6
##########                         Heavy_Atoms:                  28
##########                    Molecular_Weight:             404.868
##########                DOCK_Rotatable_Bonds:                   6
##########                       Formal_Charge:          0.00999941
##########                     HBond_Acceptors:                   7
##########                        HBond_Donors:                   1
##########                         Heavy_Atoms:                  28
##########                          Grid_Score:          -25.488304
##########                     Grid_vdw_energy:          -23.922338
##########                      Grid_es_energy:           -1.565965
##########           Internal_energy_repulsive:           12.622125

@<TRIPOS>MOLECULE
ZINC000055987960
 50 52 1 0 0
SMALL
USER_CHARGES


@<TRIPOS>ATOM
      1 C1        -11.0930   -2.3386   61.0287 C.3     1  ZINC000055987960   -0.1800
      2 C2         -9.7346   -1.6554   60.8585 C.3     1  ZINC000055987960    0.0700
      3 H3         -9.0713   -1.9572   61.6690 H       1  ZINC000055987960    0.1200
      4 C4         -9.1205   -2.0647   59.5149 C.3     1  ZINC000055987960    0.0800
      5 N5         -9.9366   -1.4858   58.4360 N.am    1  ZINC000055987960   -0.6100
      6 C6        -10.3844   -2.2487   57.4191 C.2     1  ZINC000055987960    0.5700
      7 O7        -10.1152   -3.4338   57.3840 O.2     1  ZINC000055987960   -0.5300
      8 C8        -11.2015   -1.6454   56.3482 C.ar    1  ZINC000055987960   -0.1500
      9 C9        -12.5711   -1.9137   56.2771 C.ar    1  ZINC000055987960   -0.0700
     10 C10       -13.3306   -1.3491   55.2771 C.ar    1  ZINC000055987960   -0.1500
     11 C11       -12.7358   -0.5123   54.3380 C.ar    1  ZINC000055987960    0.1700
     12 N12       -13.5079    0.0583   53.3268 N.am    1  ZINC000055987960   -0.6700
     13 C13       -13.7899    1.3759   53.3563 C.2     1  ZINC000055987960    0.5200
     14 O14       -13.3721    2.0653   54.2624 O.2     1  ZINC000055987960   -0.5000
     15 C15       -14.6244    1.9926   52.2635 C.3     1  ZINC000055987960   -0.1100
     16 C16       -13.9847    1.7176   50.9270 C.ar    1  ZINC000055987960   -0.1000
     17 C17       -14.4781    0.7090   50.1176 C.ar    1  ZINC000055987960    0.1300
     18 F18       -15.5334   -0.0294   50.5253 F       1  ZINC000055987960   -0.1300
     19 C19       -13.8896    0.4576   48.8894 C.ar    1  ZINC000055987960   -0.1500
     20 C20       -12.8106    1.2134   48.4726 C.ar    1  ZINC000055987960   -0.0700
     21 C21       -12.3177    2.2208   49.2810 C.ar    1  ZINC000055987960   -0.1200
     22 C22       -12.9076    2.4768   50.5059 C.ar    1  ZINC000055987960    0.0000
     23 Cl23      -12.2883    3.7424   51.5200 Cl      1  ZINC000055987960   -0.0500
     24 C24       -11.3724   -0.2431   54.4060 C.ar    1  ZINC000055987960   -0.1200
     25 C25       -10.6083   -0.8003   55.4065 C.ar    1  ZINC000055987960   -0.0500
     26 C26       -10.2497   -0.0494   58.5002 C.3     1  ZINC000055987960    0.0600
     27 C27       -10.8089    0.2617   59.8932 C.3     1  ZINC000055987960    0.0700
     28 H28       -11.7805   -0.2182   60.0110 H       1  ZINC000055987960    0.0700
     29 C29       -10.9632    1.7752   60.0558 C.3     1  ZINC000055987960   -0.1500
     30 O30        -9.9070   -0.2366   60.8857 O.3     1  ZINC000055987960   -0.3700
     31 H31       -11.7558   -2.0364   60.2178 H       1  ZINC000055987960    0.0600
     32 H32       -10.9610   -3.4204   61.0061 H       1  ZINC000055987960    0.0700
     33 H33       -11.5299   -2.0457   61.9833 H       1  ZINC000055987960    0.0700
     34 H34        -8.1004   -1.6864   59.4471 H       1  ZINC000055987960    0.0800
     35 H35        -9.1159   -3.1513   59.4291 H       1  ZINC000055987960    0.1000
     36 H36       -13.0334   -2.5634   57.0054 H       1  ZINC000055987960    0.1400
     37 H37       -14.3891   -1.5563   55.2212 H       1  ZINC000055987960    0.1300
     38 H38       -13.8422   -0.4931   52.6022 H       1  ZINC000055987960    0.4200
     39 H39       -15.6251    1.5609   52.2831 H       1  ZINC000055987960    0.1200
     40 H40       -14.6901    3.0693   52.4202 H       1  ZINC000055987960    0.1200
     41 H41       -14.2739   -0.3294   48.2575 H       1  ZINC000055987960    0.1500
     42 H42       -12.3517    1.0168   47.5149 H       1  ZINC000055987960    0.1500
     43 H43       -11.4740    2.8107   48.9546 H       1  ZINC000055987960    0.1400
     44 H44       -10.9138    0.4065   53.6753 H       1  ZINC000055987960    0.1500
     45 H45        -9.5501   -0.5910   55.4588 H       1  ZINC000055987960    0.1300
     46 H46        -9.3434    0.5318   58.3302 H       1  ZINC000055987960    0.0800
     47 H47       -10.9929    0.1986   57.7426 H       1  ZINC000055987960    0.1100
     48 H48       -11.6478    2.1541   59.2969 H       1  ZINC000055987960    0.0700
     49 H49       -11.3608    1.9956   61.0464 H       1  ZINC000055987960    0.0700
     50 H50        -9.9909    2.2541   59.9397 H       1  ZINC000055987960    0.0700
@<TRIPOS>BOND
     1     1     2    1
     2     1    31    1
     3     1    32    1
     4     1    33    1
     5     2     3    1
     6     2    30    1
     7     2     4    1
     8     4     5    1
     9     4    34    1
    10     4    35    1
    11     5     6   am
    12     5    26    1
    13     6     7    2
    14     6     8    1
    15     8    25   ar
    16     8     9   ar
    17     9    10   ar
    18     9    36    1
    19    10    11   ar
    20    10    37    1
    21    11    12    1
    22    11    24   ar
    23    12    13   am
    24    12    38    1
    25    13    14    2
    26    13    15    1
    27    15    16    1
    28    15    39    1
    29    15    40    1
    30    16    22   ar
    31    16    17   ar
    32    17    18    1
    33    17    19   ar
    34    19    20   ar
    35    19    41    1
    36    20    21   ar
    37    20    42    1
    38    21    22   ar
    39    21    43    1
    40    22    23    1
    41    24    25   ar
    42    24    44    1
    43    25    45    1
    44    26    27    1
    45    26    46    1
    46    26    47    1
    47    27    28    1
    48    27    29    1
    49    27    30    1
    50    29    48    1
    51    29    49    1
    52    29    50    1
@<TRIPOS>SUBSTRUCTURE
     1 ZINC000055987960        1 TEMP              0 ****  ****    0 ROOT


##########                                Name:    ZINC001179023006
##########                DOCK_Rotatable_Bonds:                   3
##########                         Heavy_Atoms:                  25
##########                    Molecular_Weight:             340.465
##########                DOCK_Rotatable_Bonds:                   3
##########                       Formal_Charge:          -0.0100005
##########                     HBond_Acceptors:                   4
##########                        HBond_Donors:                   1
##########                         Heavy_Atoms:                  25
##########                          Grid_Score:          -25.478455
##########                     Grid_vdw_energy:          -25.289310
##########                      Grid_es_energy:           -0.189144
##########           Internal_energy_repulsive:           29.686426

@<TRIPOS>MOLECULE
ZINC001179023006
 53 56 1 0 0
SMALL
USER_CHARGES


@<TRIPOS>ATOM
      1 C1        -14.9530   -1.1709   56.1582 C.3     1  ZINC001179023006   -0.1500
      2 C2        -13.7644   -2.1325   56.1012 C.3     1  ZINC001179023006   -0.1100
      3 C3        -14.0710   -3.3726   56.9432 C.3     1  ZINC001179023006   -0.1100
      4 C4        -14.3203   -3.0482   58.3936 C.2     1  ZINC001179023006    0.5400
      5 O5        -15.4470   -3.0937   58.8401 O.2     1  ZINC001179023006   -0.5400
      6 N6        -13.2912   -2.7079   59.1946 N.am    1  ZINC001179023006   -0.5900
      7 C7        -13.5184   -2.3831   60.6093 C.3     1  ZINC001179023006    0.1000
      8 C8        -12.9008   -1.0203   60.9135 C.3     1  ZINC001179023006   -0.1200
      9 C9        -11.4189   -1.0337   60.5111 C.3     1  ZINC001179023006   -0.0500
     10 C10       -11.3250   -1.2765   58.9974 C.3     1  ZINC001179023006   -0.1100
     11 C11       -11.9204   -2.6485   58.6694 C.3     1  ZINC001179023006    0.0900
     12 C12       -10.8040    0.3188   60.8344 C.3     1  ZINC001179023006   -0.0800
     13 C13       -10.9663    0.6685   62.2820 C.ar    1  ZINC001179023006   -0.0700
     14 C14       -11.8815    1.6573   62.6287 C.ar    1  ZINC001179023006   -0.1100
     15 C15       -12.0996    1.9588   63.9586 C.ar    1  ZINC001179023006   -0.1100
     16 C16       -11.4109    1.2827   64.9480 C.ar    1  ZINC001179023006   -0.1200
     17 C17       -10.4910    0.3097   64.5997 C.ar    1  ZINC001179023006   -0.1000
     18 C18       -10.2744    0.0231   63.2636 C.ar    1  ZINC001179023006   -0.1100
     19 C19        -9.2528   -1.0159   62.8775 C.3     1  ZINC001179023006    0.1400
     20 N20        -9.8661   -2.1459   62.2154 N.am    1  ZINC001179023006   -0.7000
     21 C21       -10.7258   -2.1483   61.2294 C.2     1  ZINC001179023006    0.5200
     22 O22       -11.0135   -3.2545   60.8243 O.2     1  ZINC001179023006   -0.5500
     23 C23       -13.0724   -4.5229   56.7320 C.3     1  ZINC001179023006   -0.1200
     24 C24       -14.2805   -5.4754   56.7905 C.3     1  ZINC001179023006   -0.1400
     25 C25       -15.1400   -4.2885   56.3243 C.3     1  ZINC001179023006   -0.1300
     26 H26       -14.7504   -0.3051   55.5277 H       1  ZINC001179023006    0.0600
     27 H27       -15.8488   -1.6788   55.8010 H       1  ZINC001179023006    0.0500
     28 H28       -15.1066   -0.8435   57.1865 H       1  ZINC001179023006    0.0600
     29 H29       -12.8768   -1.6367   56.4943 H       1  ZINC001179023006    0.0700
     30 H30       -13.5868   -2.4298   55.0677 H       1  ZINC001179023006    0.0700
     31 H31       -14.5894   -2.3499   60.8089 H       1  ZINC001179023006    0.0900
     32 H32       -13.0512   -3.1413   61.2378 H       1  ZINC001179023006    0.0800
     33 H33       -12.9866   -0.8101   61.9796 H       1  ZINC001179023006    0.0800
     34 H34       -13.4248   -0.2503   60.3473 H       1  ZINC001179023006    0.0800
     35 H35       -10.2801   -1.2498   58.6885 H       1  ZINC001179023006    0.0800
     36 H36       -11.8809   -0.5024   58.4685 H       1  ZINC001179023006    0.0800
     37 H37       -11.3172   -3.4289   59.1332 H       1  ZINC001179023006    0.1200
     38 H38       -11.9368   -2.7906   57.5888 H       1  ZINC001179023006    0.0800
     39 H39        -9.7416    0.2937   60.5917 H       1  ZINC001179023006    0.0800
     40 H40       -11.2881    1.0838   60.2274 H       1  ZINC001179023006    0.0900
     41 H41       -12.4210    2.1884   61.8585 H       1  ZINC001179023006    0.1200
     42 H42       -12.8109    2.7260   64.2265 H       1  ZINC001179023006    0.1200
     43 H43       -11.5902    1.5128   65.9879 H       1  ZINC001179023006    0.1300
     44 H44        -9.9457   -0.2220   65.3654 H       1  ZINC001179023006    0.1300
     45 H45        -8.7422   -1.3640   63.7754 H       1  ZINC001179023006    0.0900
     46 H46        -8.5220   -0.5642   62.2067 H       1  ZINC001179023006    0.0800
     47 H47        -9.6052   -3.0193   62.5472 H       1  ZINC001179023006    0.4000
     48 H48       -12.5803   -4.5010   55.7598 H       1  ZINC001179023006    0.0900
     49 H49       -12.3734   -4.6515   57.5585 H       1  ZINC001179023006    0.0800
     50 H50       -14.5172   -5.8168   57.7982 H       1  ZINC001179023006    0.0800
     51 H51       -14.2324   -6.2901   56.0680 H       1  ZINC001179023006    0.0700
     52 H52       -16.1079   -4.2283   56.8221 H       1  ZINC001179023006    0.0700
     53 H53       -15.2144   -4.2024   55.2402 H       1  ZINC001179023006    0.0900
@<TRIPOS>BOND
     1     1     2    1
     2     1    26    1
     3     1    27    1
     4     1    28    1
     5     2     3    1
     6     2    29    1
     7     2    30    1
     8     3    25    1
     9     3     4    1
    10     3    23    1
    11     4     5    2
    12     4     6   am
    13     6    11    1
    14     6     7    1
    15     7     8    1
    16     7    31    1
    17     7    32    1
    18     8     9    1
    19     8    33    1
    20     8    34    1
    21     9    21    1
    22     9    10    1
    23     9    12    1
    24    10    11    1
    25    10    35    1
    26    10    36    1
    27    11    37    1
    28    11    38    1
    29    12    13    1
    30    12    39    1
    31    12    40    1
    32    13    18   ar
    33    13    14   ar
    34    14    15   ar
    35    14    41    1
    36    15    16   ar
    37    15    42    1
    38    16    17   ar
    39    16    43    1
    40    17    18   ar
    41    17    44    1
    42    18    19    1
    43    19    20    1
    44    19    45    1
    45    19    46    1
    46    20    21   am
    47    20    47    1
    48    21    22    2
    49    23    24    1
    50    23    48    1
    51    23    49    1
    52    24    25    1
    53    24    50    1
    54    24    51    1
    55    25    52    1
    56    25    53    1
@<TRIPOS>SUBSTRUCTURE
     1 ZINC001179023006        1 TEMP              0 ****  ****    0 ROOT


##########                                Name:    ZINC000768148687
##########                DOCK_Rotatable_Bonds:                   8
##########                         Heavy_Atoms:                  25
##########                    Molecular_Weight:             371.307
##########                DOCK_Rotatable_Bonds:                   8
##########                       Formal_Charge:         2.98023e-08
##########                     HBond_Acceptors:                  11
##########                        HBond_Donors:                   0
##########                         Heavy_Atoms:                  25
##########                          Grid_Score:          -25.425348
##########                     Grid_vdw_energy:          -24.352188
##########                      Grid_es_energy:           -1.073160
##########           Internal_energy_repulsive:           11.155852

@<TRIPOS>MOLECULE
ZINC000768148687
 43 44 1 0 0
SMALL
USER_CHARGES


@<TRIPOS>ATOM
      1 C1          1.3216    2.4546   43.6475 C.3     1  ZINC000768148687   -0.1800
      2 C2          0.1680    1.6034   44.1817 C.3     1  ZINC000768148687    0.1100
      3 N3         -0.1829    2.0488   45.5325 N.pl3   1  ZINC000768148687   -0.3100
      4 N4         -0.2432    3.3782   45.9650 N.2     1  ZINC000768148687   -0.2000
      5 C5         -0.5874    3.3985   47.2229 C.2     1  ZINC000768148687    0.0200
      6 C6         -0.7663    4.6303   48.0724 C.3     1  ZINC000768148687    0.5500
      7 F7         -0.8536    5.7569   47.2477 F       1  ZINC000768148687   -0.1600
      8 F8         -1.9396    4.5113   48.8251 F       1  ZINC000768148687   -0.1600
      9 F9          0.3281    4.7662   48.9332 F       1  ZINC000768148687   -0.1500
     10 C10        -0.7630    2.0625   47.6496 C.2     1  ZINC000768148687   -0.1800
     11 C11        -1.1525    1.6195   48.9992 C.2     1  ZINC000768148687    0.5300
     12 O12        -2.3147    1.3604   49.2419 O.2     1  ZINC000768148687   -0.4700
     13 O13        -0.2201    1.5014   49.9650 O.3     1  ZINC000768148687   -0.3400
     14 C14         1.1686    1.4819   49.5416 C.3     1  ZINC000768148687    0.0200
     15 C15         2.0529    1.0498   50.7130 C.3     1  ZINC000768148687    0.0600
     16 N16         2.5478    2.2398   51.4180 N.3     1  ZINC000768148687   -0.5300
     17 C17         3.6729    1.8992   52.3008 C.3     1  ZINC000768148687    0.0100
     18 C18         4.1948    3.1742   52.9685 C.3     1  ZINC000768148687    0.0600
     19 O19         3.1252    3.8085   53.6749 O.3     1  ZINC000768148687   -0.3800
     20 C20         2.0129    4.1547   52.8453 C.3     1  ZINC000768148687    0.0600
     21 C21         1.4688    2.8895   52.1764 C.3     1  ZINC000768148687    0.0100
     22 C22        -0.5064    1.2506   46.5620 C.2     1  ZINC000768148687    0.0600
     23 C23        -0.5682   -0.2549   46.5384 C.3     1  ZINC000768148687    0.3400
     24 F24        -1.2958   -0.6743   45.4195 F       1  ZINC000768148687   -0.1700
     25 F25         0.7292   -0.7739   46.4722 F       1  ZINC000768148687   -0.1800
     26 H26         1.5826    2.1232   42.6424 H       1  ZINC000768148687    0.0900
     27 H27         1.0175    3.5010   43.6175 H       1  ZINC000768148687    0.0700
     28 H28         2.1864    2.3463   44.3019 H       1  ZINC000768148687    0.0700
     29 H29        -0.6970    1.7117   43.5274 H       1  ZINC000768148687    0.1100
     30 H30         0.4721    0.5571   44.2117 H       1  ZINC000768148687    0.1200
     31 H31         1.2875    0.7782   48.7178 H       1  ZINC000768148687    0.0800
     32 H32         1.4624    2.4788   49.2131 H       1  ZINC000768148687    0.0800
     33 H33         1.4708    0.4361   51.4006 H       1  ZINC000768148687    0.1100
     34 H34         2.8976    0.4727   50.3371 H       1  ZINC000768148687    0.0900
     35 H35         3.3365    1.1993   53.0657 H       1  ZINC000768148687    0.0500
     36 H36         4.4704    1.4428   51.7144 H       1  ZINC000768148687    0.0900
     37 H37         4.9917    2.9192   53.6671 H       1  ZINC000768148687    0.1000
     38 H38         4.5806    3.8521   52.2070 H       1  ZINC000768148687    0.0600
     39 H39         1.2317    4.6087   53.4548 H       1  ZINC000768148687    0.1000
     40 H40         2.3352    4.8609   52.0802 H       1  ZINC000768148687    0.0600
     41 H41         0.6574    3.1561   51.4992 H       1  ZINC000768148687    0.0800
     42 H42         1.0972    2.2055   52.9394 H       1  ZINC000768148687    0.0700
     43 H43        -1.0568   -0.6128   47.4446 H       1  ZINC000768148687    0.1500
@<TRIPOS>BOND
     1     1     2    1
     2     1    26    1
     3     1    27    1
     4     1    28    1
     5     2     3    1
     6     2    29    1
     7     2    30    1
     8     3    22    1
     9     3     4    1
    10     4     5    2
    11     5     6    1
    12     5    10    1
    13     6     7    1
    14     6     8    1
    15     6     9    1
    16    10    11    1
    17    10    22    2
    18    11    12    2
    19    11    13    1
    20    13    14    1
    21    14    15    1
    22    14    31    1
    23    14    32    1
    24    15    16    1
    25    15    33    1
    26    15    34    1
    27    16    21    1
    28    16    17    1
    29    17    18    1
    30    17    35    1
    31    17    36    1
    32    18    19    1
    33    18    37    1
    34    18    38    1
    35    19    20    1
    36    20    21    1
    37    20    39    1
    38    20    40    1
    39    21    41    1
    40    21    42    1
    41    22    23    1
    42    23    24    1
    43    23    25    1
    44    23    43    1
@<TRIPOS>SUBSTRUCTURE
     1 ZINC000768148687        1 TEMP              0 ****  ****    0 ROOT


##########                                Name:    ZINC000098105561
##########                DOCK_Rotatable_Bonds:                   5
##########                         Heavy_Atoms:                  25
##########                    Molecular_Weight:             368.336
##########                DOCK_Rotatable_Bonds:                   5
##########                       Formal_Charge:         2.98023e-08
##########                     HBond_Acceptors:                   9
##########                        HBond_Donors:                   0
##########                         Heavy_Atoms:                  25
##########                          Grid_Score:          -25.413872
##########                     Grid_vdw_energy:          -25.102627
##########                      Grid_es_energy:           -0.311244
##########           Internal_energy_repulsive:           11.484678

@<TRIPOS>MOLECULE
ZINC000098105561
 36 38 1 0 0
SMALL
USER_CHARGES


@<TRIPOS>ATOM
      1 C1         -0.5533    4.2696   55.3675 C.3     1  ZINC000098105561   -0.0800
      2 C2         -1.1797    4.3687   54.0005 C.2     1  ZINC000098105561    0.0900
      3 C3         -2.1966    5.1907   53.7307 C.2     1  ZINC000098105561   -0.2700
      4 S4         -2.6202    4.9960   52.0317 S.3     1  ZINC000098105561    0.1600
      5 C5         -1.3872    3.8260   51.8478 C.2     1  ZINC000098105561    0.2500
      6 N6         -1.0921    3.1611   50.6658 N.am    1  ZINC000098105561   -0.5200
      7 C7          0.2475    3.2647   50.0819 C.3     1  ZINC000098105561    0.0500
      8 C8          0.4236    4.6477   49.4517 C.3     1  ZINC000098105561    0.4400
      9 F9         -0.5607    4.8450   48.4772 F       1  ZINC000098105561   -0.1700
     10 F10         0.3038    5.6297   50.4410 F       1  ZINC000098105561   -0.1700
     11 F11         1.6887    4.7331   48.8607 F       1  ZINC000098105561   -0.1700
     12 C12        -2.0380    2.4203   50.0550 C.2     1  ZINC000098105561    0.5800
     13 O13        -3.1492    2.3345   50.5393 O.2     1  ZINC000098105561   -0.4100
     14 C14        -1.7232    1.7109   48.7936 C.2     1  ZINC000098105561    0.0800
     15 C15        -1.5920    0.3616   48.8228 C.2     1  ZINC000098105561   -0.2000
     16 C16        -1.2625   -0.3335   47.5670 C.2     1  ZINC000098105561    0.4200
     17 O17        -1.3474   -1.5441   47.4576 O.2     1  ZINC000098105561   -0.4300
     18 C18        -0.8234    0.5244   46.4479 C.ar    1  ZINC000098105561   -0.2200
     19 C19        -0.2440   -0.0145   45.3012 C.ar    1  ZINC000098105561   -0.0300
     20 C20         0.1562    0.8252   44.2845 C.ar    1  ZINC000098105561   -0.1400
     21 C21        -0.0160    2.1970   44.4029 C.ar    1  ZINC000098105561   -0.0500
     22 C22        -0.5900    2.7415   45.5314 C.ar    1  ZINC000098105561   -0.1400
     23 C23        -1.0052    1.9134   46.5689 C.ar    1  ZINC000098105561    0.1400
     24 O24        -1.5854    2.4290   47.6707 O.3     1  ZINC000098105561   -0.2300
     25 N25        -0.7642    3.6543   52.9721 N.2     1  ZINC000098105561   -0.4600
     26 H26         0.2606    4.9901   55.4473 H       1  ZINC000098105561    0.0800
     27 H27        -1.3043    4.4842   56.1278 H       1  ZINC000098105561    0.0800
     28 H28        -0.1631    3.2627   55.5162 H       1  ZINC000098105561    0.0800
     29 H29        -2.6759    5.8581   54.4315 H       1  ZINC000098105561    0.1900
     30 H30         0.9957    3.1228   50.8618 H       1  ZINC000098105561    0.1700
     31 H31         0.3706    2.4983   49.3166 H       1  ZINC000098105561    0.1400
     32 H32        -1.7253   -0.1887   49.7424 H       1  ZINC000098105561    0.1800
     33 H33        -0.1091   -1.0821   45.2099 H       1  ZINC000098105561    0.1400
     34 H34         0.6058    0.4143   43.3926 H       1  ZINC000098105561    0.1400
     35 H35         0.3040    2.8460   43.6012 H       1  ZINC000098105561    0.1400
     36 H36        -0.7178    3.8111   45.6100 H       1  ZINC000098105561    0.1400
@<TRIPOS>BOND
     1     1     2    1
     2     1    26    1
     3     1    27    1
     4     1    28    1
     5     2    25    1
     6     2     3    2
     7     3     4    1
     8     3    29    1
     9     4     5    1
    10     5     6    1
    11     5    25    2
    12     6     7    1
    13     6    12   am
    14     7     8    1
    15     7    30    1
    16     7    31    1
    17     8     9    1
    18     8    10    1
    19     8    11    1
    20    12    13    2
    21    12    14    1
    22    14    24    1
    23    14    15    2
    24    15    16    1
    25    15    32    1
    26    16    17    2
    27    16    18    1
    28    18    23   ar
    29    18    19   ar
    30    19    20   ar
    31    19    33    1
    32    20    21   ar
    33    20    34    1
    34    21    22   ar
    35    21    35    1
    36    22    23   ar
    37    22    36    1
    38    23    24    1
@<TRIPOS>SUBSTRUCTURE
     1 ZINC000098105561        1 TEMP              0 ****  ****    0 ROOT


##########                                Name:    ZINC001625935330
##########                DOCK_Rotatable_Bonds:                   5
##########                         Heavy_Atoms:                  25
##########                    Molecular_Weight:             327.385
##########                DOCK_Rotatable_Bonds:                   5
##########                       Formal_Charge:           0.0199995
##########                     HBond_Acceptors:                   4
##########                        HBond_Donors:                   1
##########                         Heavy_Atoms:                  25
##########                          Grid_Score:          -25.387638
##########                     Grid_vdw_energy:          -22.556437
##########                      Grid_es_energy:           -2.831201
##########           Internal_energy_repulsive:            8.488384

@<TRIPOS>MOLECULE
ZINC001625935330
 42 44 1 0 0
SMALL
USER_CHARGES


@<TRIPOS>ATOM
      1 C1        -13.1825    1.5147   62.5709 C.3     1  ZINC001625935330   -0.1600
      2 C2        -13.0352    0.0127   62.8231 C.3     1  ZINC001625935330    0.1800
      3 H3        -13.2701   -0.2054   63.8650 H       1  ZINC001625935330    0.1000
      4 N4        -13.9553   -0.7214   61.9510 N.am    1  ZINC001625935330   -0.7100
      5 C5        -15.2511   -0.8536   62.2974 C.2     1  ZINC001625935330    0.5800
      6 O6        -15.6559   -0.3653   63.3338 O.2     1  ZINC001625935330   -0.5300
      7 C7        -16.1821   -1.5946   61.4144 C.ar    1  ZINC001625935330    0.0800
      8 C8        -15.8209   -1.8555   60.0972 C.ar    1  ZINC001625935330   -0.1000
      9 C9        -16.7108   -2.5561   59.2783 C.ar    1  ZINC001625935330    0.0000
     10 C10       -16.3694   -2.8584   57.8664 C.ar    1  ZINC001625935330   -0.0600
     11 C11       -15.0468   -3.1066   57.5045 C.ar    1  ZINC001625935330   -0.1000
     12 C12       -14.7350   -3.3877   56.1898 C.ar    1  ZINC001625935330   -0.1200
     13 C13       -15.7325   -3.4234   55.2321 C.ar    1  ZINC001625935330   -0.1100
     14 C14       -17.0471   -3.1778   55.5857 C.ar    1  ZINC001625935330   -0.1200
     15 C15       -17.3710   -2.9009   56.8984 C.ar    1  ZINC001625935330   -0.1000
     16 C16       -17.9301   -2.9646   59.8242 C.ar    1  ZINC001625935330   -0.1400
     17 C17       -18.2129   -2.6646   61.1450 C.ar    1  ZINC001625935330    0.1100
     18 N18       -17.3510   -2.0077   61.8907 N.ar    1  ZINC001625935330   -0.4600
     19 C19       -11.6190   -0.4097   62.5283 C.ar    1  ZINC001625935330   -0.0900
     20 C20       -10.6584   -0.3444   63.5216 C.ar    1  ZINC001625935330   -0.0800
     21 C21        -9.3556   -0.7304   63.2594 C.ar    1  ZINC001625935330   -0.1100
     22 C22        -9.0064   -1.1837   62.0045 C.ar    1  ZINC001625935330   -0.0700
     23 C23        -9.9713   -1.2526   60.9972 C.ar    1  ZINC001625935330   -0.0200
     24 C24        -9.6161   -1.7223   59.6919 C.1     1  ZINC001625935330    0.2500
     25 N25        -9.3342   -2.0950   58.6564 N.1     1  ZINC001625935330   -0.4100
     26 C26       -11.2849   -0.8662   61.2699 C.ar    1  ZINC001625935330   -0.0600
     27 H27       -12.4979    2.0609   63.2198 H       1  ZINC001625935330    0.0700
     28 H28       -12.9476    1.7328   61.5291 H       1  ZINC001625935330    0.0600
     29 H29       -14.2068    1.8202   62.7841 H       1  ZINC001625935330    0.0700
     30 H30       -13.6321   -1.1122   61.1242 H       1  ZINC001625935330    0.4100
     31 H31       -14.8682   -1.5219   59.7130 H       1  ZINC001625935330    0.1500
     32 H32       -14.2672   -3.0786   58.2514 H       1  ZINC001625935330    0.1300
     33 H33       -13.7103   -3.5798   55.9081 H       1  ZINC001625935330    0.1300
     34 H34       -15.4840   -3.6434   54.2043 H       1  ZINC001625935330    0.1300
     35 H35       -17.8219   -3.2067   54.8339 H       1  ZINC001625935330    0.1300
     36 H36       -18.3977   -2.7096   57.1735 H       1  ZINC001625935330    0.1300
     37 H37       -18.6436   -3.5078   59.2223 H       1  ZINC001625935330    0.1400
     38 H38       -19.1545   -2.9781   61.5714 H       1  ZINC001625935330    0.1700
     39 H39       -10.9264    0.0098   64.5060 H       1  ZINC001625935330    0.1300
     40 H40        -8.6104   -0.6761   64.0393 H       1  ZINC001625935330    0.1400
     41 H41        -7.9893   -1.4842   61.8011 H       1  ZINC001625935330    0.1400
     42 H42       -12.0359   -0.9171   60.4955 H       1  ZINC001625935330    0.1400
@<TRIPOS>BOND
     1     1     2    1
     2     1    27    1
     3     1    28    1
     4     1    29    1
     5     2     3    1
     6     2     4    1
     7     2    19    1
     8     4     5   am
     9     4    30    1
    10     5     6    2
    11     5     7    1
    12     7    18   ar
    13     7     8   ar
    14     8     9   ar
    15     8    31    1
    16     9    10    1
    17     9    16   ar
    18    10    15   ar
    19    10    11   ar
    20    11    12   ar
    21    11    32    1
    22    12    13   ar
    23    12    33    1
    24    13    14   ar
    25    13    34    1
    26    14    15   ar
    27    14    35    1
    28    15    36    1
    29    16    17   ar
    30    16    37    1
    31    17    18   ar
    32    17    38    1
    33    19    26   ar
    34    19    20   ar
    35    20    21   ar
    36    20    39    1
    37    21    22   ar
    38    21    40    1
    39    22    23   ar
    40    22    41    1
    41    23    24    1
    42    23    26   ar
    43    24    25    3
    44    26    42    1
@<TRIPOS>SUBSTRUCTURE
     1 ZINC001625935330        1 TEMP              0 ****  ****    0 ROOT


##########                                Name:    ZINC000521663393
##########                DOCK_Rotatable_Bonds:                   5
##########                         Heavy_Atoms:                  27
##########                    Molecular_Weight:              386.49
##########                DOCK_Rotatable_Bonds:                   5
##########                       Formal_Charge:               -0.02
##########                     HBond_Acceptors:                   6
##########                        HBond_Donors:                   1
##########                         Heavy_Atoms:                  27
##########                          Grid_Score:          -25.373844
##########                     Grid_vdw_energy:          -25.439234
##########                      Grid_es_energy:            0.065389
##########           Internal_energy_repulsive:           12.867492

@<TRIPOS>MOLECULE
ZINC000521663393
 50 53 1 0 0
SMALL
USER_CHARGES


@<TRIPOS>ATOM
      1 C1         -9.3309   -2.8838   58.9344 C.3     1  ZINC000521663393   -0.1500
      2 C2        -10.7000   -3.5210   59.1808 C.3     1  ZINC000521663393    0.0800
      3 H3        -10.8309   -3.7545   60.2374 H       1  ZINC000521663393    0.0900
      4 O4        -10.8657   -4.6996   58.3743 O.3     1  ZINC000521663393   -0.2900
      5 C5        -12.1719   -4.8120   58.0076 C.ar    1  ZINC000521663393    0.1400
      6 C6        -12.8774   -5.9206   57.5480 C.ar    1  ZINC000521663393   -0.1800
      7 C7        -14.2146   -5.8064   57.2188 C.ar    1  ZINC000521663393    0.1400
      8 F8        -14.8921   -6.8869   56.7729 F       1  ZINC000521663393   -0.1300
      9 C9        -14.8634   -4.5895   57.3441 C.ar    1  ZINC000521663393   -0.1800
     10 C10       -14.1686   -3.4854   57.8047 C.ar    1  ZINC000521663393   -0.0200
     11 C11       -12.8368   -3.5988   58.1362 C.ar    1  ZINC000521663393   -0.2000
     12 C12       -11.8335   -2.5952   58.6794 C.3     1  ZINC000521663393    0.1700
     13 H13       -11.4767   -1.9346   57.8894 H       1  ZINC000521663393    0.1200
     14 N14       -12.4102   -1.8235   59.7831 N.am    1  ZINC000521663393   -0.7200
     15 C15       -12.8611   -0.5719   59.5668 C.2     1  ZINC000521663393    0.5300
     16 O16       -12.7908   -0.0851   58.4582 O.2     1  ZINC000521663393   -0.5000
     17 C17       -13.4527    0.2226   60.7025 C.3     1  ZINC000521663393    0.1200
     18 H18       -13.6092    1.2528   60.3825 H       1  ZINC000521663393    0.0700
     19 C19       -14.7719   -0.3840   61.1062 C.ar    1  ZINC000521663393   -0.0900
     20 C20       -14.7984   -1.5560   61.8388 C.ar    1  ZINC000521663393   -0.0900
     21 C21       -16.0083   -2.1124   62.2090 C.ar    1  ZINC000521663393   -0.1200
     22 C22       -17.1919   -1.4967   61.8471 C.ar    1  ZINC000521663393   -0.1100
     23 C23       -17.1654   -0.3242   61.1154 C.ar    1  ZINC000521663393   -0.1200
     24 C24       -15.9553    0.2345   60.7487 C.ar    1  ZINC000521663393   -0.1100
     25 N25       -12.5326    0.2000   61.8474 N.3     1  ZINC000521663393   -0.5300
     26 C26       -13.0925    0.9327   62.9854 C.3     1  ZINC000521663393    0.0500
     27 C27       -12.3584    0.5373   64.2712 C.3     1  ZINC000521663393   -0.0700
     28 S28       -10.6084    1.0043   64.1038 S.3     1  ZINC000521663393   -0.2700
     29 C29       -10.1701    0.2520   62.5067 C.3     1  ZINC000521663393   -0.0700
     30 C30       -11.2054    0.6867   61.4638 C.3     1  ZINC000521663393    0.0600
     31 H31        -9.2543   -1.9564   59.5020 H       1  ZINC000521663393    0.0800
     32 H32        -8.5475   -3.5710   59.2538 H       1  ZINC000521663393    0.0800
     33 H33        -9.2156   -2.6700   57.8718 H       1  ZINC000521663393    0.0700
     34 H34       -12.3779   -6.8729   57.4481 H       1  ZINC000521663393    0.1400
     35 H35       -15.9078   -4.5026   57.0829 H       1  ZINC000521663393    0.1400
     36 H36       -14.6707   -2.5344   57.9043 H       1  ZINC000521663393    0.1300
     37 H37       -12.4675   -2.2132   60.6695 H       1  ZINC000521663393    0.4000
     38 H38       -13.8737   -2.0370   62.1215 H       1  ZINC000521663393    0.1300
     39 H39       -16.0291   -3.0285   62.7808 H       1  ZINC000521663393    0.1300
     40 H40       -18.1372   -1.9317   62.1359 H       1  ZINC000521663393    0.1200
     41 H41       -18.0900    0.1568   60.8323 H       1  ZINC000521663393    0.1300
     42 H42       -15.9346    1.1506   60.1770 H       1  ZINC000521663393    0.1200
     43 H43       -12.9786    2.0037   62.8180 H       1  ZINC000521663393    0.0500
     44 H44       -14.1513    0.6935   63.0846 H       1  ZINC000521663393    0.1000
     45 H45       -12.7978    1.0616   65.1197 H       1  ZINC000521663393    0.1100
     46 H46       -12.4374   -0.5394   64.4215 H       1  ZINC000521663393    0.0900
     47 H47        -9.1795    0.5900   62.2023 H       1  ZINC000521663393    0.1100
     48 H48       -10.1772   -0.8340   62.5993 H       1  ZINC000521663393    0.1000
     49 H49       -10.9354    0.2742   60.4917 H       1  ZINC000521663393    0.0800
     50 H50       -11.2226    1.7747   61.4022 H       1  ZINC000521663393    0.0500
@<TRIPOS>BOND
     1     1     2    1
     2     1    31    1
     3     1    32    1
     4     1    33    1
     5     2     3    1
     6     2    12    1
     7     2     4    1
     8     4     5    1
     9     5    11   ar
    10     5     6   ar
    11     6     7   ar
    12     6    34    1
    13     7     8    1
    14     7     9   ar
    15     9    10   ar
    16     9    35    1
    17    10    11   ar
    18    10    36    1
    19    11    12    1
    20    12    13    1
    21    12    14    1
    22    14    15   am
    23    14    37    1
    24    15    16    2
    25    15    17    1
    26    17    18    1
    27    17    19    1
    28    17    25    1
    29    19    24   ar
    30    19    20   ar
    31    20    21   ar
    32    20    38    1
    33    21    22   ar
    34    21    39    1
    35    22    23   ar
    36    22    40    1
    37    23    24   ar
    38    23    41    1
    39    24    42    1
    40    25    30    1
    41    25    26    1
    42    26    27    1
    43    26    43    1
    44    26    44    1
    45    27    28    1
    46    27    45    1
    47    27    46    1
    48    28    29    1
    49    29    30    1
    50    29    47    1
    51    29    48    1
    52    30    49    1
    53    30    50    1
@<TRIPOS>SUBSTRUCTURE
     1 ZINC000521663393        1 TEMP              0 ****  ****    0 ROOT


##########                                Name:    ZINC001085817863
##########                DOCK_Rotatable_Bonds:                   7
##########                         Heavy_Atoms:                  24
##########                    Molecular_Weight:             326.442
##########                DOCK_Rotatable_Bonds:                   7
##########                       Formal_Charge:           0.0299998
##########                     HBond_Acceptors:                   5
##########                        HBond_Donors:                   0
##########                         Heavy_Atoms:                  24
##########                          Grid_Score:          -25.295584
##########                     Grid_vdw_energy:          -24.211372
##########                      Grid_es_energy:           -1.084211
##########           Internal_energy_repulsive:           12.337792

@<TRIPOS>MOLECULE
ZINC001085817863
 50 52 1 0 0
SMALL
USER_CHARGES


@<TRIPOS>ATOM
      1 C1        -14.0570   -4.9340   56.2191 C.3     1  ZINC001085817863   -0.1400
      2 C2        -14.0829   -4.4231   57.6611 C.3     1  ZINC001085817863   -0.0700
      3 C3        -14.2241   -2.9227   57.6599 C.2     1  ZINC001085817863    0.1100
      4 C4        -13.1947   -2.0223   57.6571 C.2     1  ZINC001085817863   -0.2400
      5 C5        -11.7537   -2.3254   57.6539 C.2     1  ZINC001085817863    0.6000
      6 O6        -11.1482   -2.3908   56.6011 O.2     1  ZINC001085817863   -0.5300
      7 N7        -11.1055   -2.5304   58.8178 N.am    1  ZINC001085817863   -0.6100
      8 C8         -9.6720   -2.8320   58.8146 C.3     1  ZINC001085817863    0.0800
      9 C9        -11.8347   -2.4516   60.0860 C.3     1  ZINC001085817863    0.1300
     10 C10       -11.7408   -1.0289   60.6407 C.3     1  ZINC001085817863    0.0100
     11 H11       -11.1982   -0.3535   59.9792 H       1  ZINC001085817863    0.0800
     12 C12       -13.0883   -0.4676   61.1160 C.3     1  ZINC001085817863   -0.1400
     13 C13       -12.2445    0.1258   62.2529 C.3     1  ZINC001085817863    0.0000
     14 N14       -11.2824   -0.9734   62.0414 N.3     1  ZINC001085817863   -0.4400
     15 C15        -9.8992   -0.4858   62.1253 C.3     1  ZINC001085817863    0.0700
     16 C16        -9.5795   -0.1251   63.5531 C.ar    1  ZINC001085817863   -0.1300
     17 C17        -9.8528    1.1461   64.0341 C.ar    1  ZINC001085817863   -0.0700
     18 C18        -9.5421    1.4329   65.3547 C.ar    1  ZINC001085817863   -0.1700
     19 C19        -8.9745    0.4493   66.1420 C.ar    1  ZINC001085817863    0.1000
     20 N20        -8.7283   -0.7496   65.6506 N.ar    1  ZINC001085817863   -0.4800
     21 C21        -9.0153   -1.0594   64.4014 C.ar    1  ZINC001085817863    0.1200
     22 C22       -13.8160   -0.6935   57.6571 C.2     1  ZINC001085817863   -0.1900
     23 C23       -15.1454   -0.8976   57.6598 C.2     1  ZINC001085817863   -0.0200
     24 N24       -15.3853   -2.2408   57.6557 N.pl3   1  ZINC001085817863   -0.4400
     25 C25       -16.7159   -2.8535   57.6570 C.3     1  ZINC001085817863    0.0600
     26 H26       -13.9548   -6.0192   56.2198 H       1  ZINC001085817863    0.0600
     27 H27       -14.9847   -4.6568   55.7186 H       1  ZINC001085817863    0.0500
     28 H28       -13.2128   -4.4900   55.6914 H       1  ZINC001085817863    0.0600
     29 H29       -14.9270   -4.8671   58.1887 H       1  ZINC001085817863    0.0600
     30 H30       -13.1551   -4.7004   58.1615 H       1  ZINC001085817863    0.1100
     31 H31        -9.1309   -2.0199   58.3291 H       1  ZINC001085817863    0.0700
     32 H32        -9.3211   -2.9399   59.8409 H       1  ZINC001085817863    0.0700
     33 H33        -9.4972   -3.7607   58.2714 H       1  ZINC001085817863    0.0600
     34 H34       -12.8809   -2.7087   59.9201 H       1  ZINC001085817863    0.0800
     35 H35       -11.3980   -3.1496   60.8003 H       1  ZINC001085817863    0.1000
     36 H36       -13.5228    0.2759   60.4478 H       1  ZINC001085817863    0.0800
     37 H37       -13.7998   -1.2279   61.4383 H       1  ZINC001085817863    0.1000
     38 H38       -11.8357    1.1096   62.0224 H       1  ZINC001085817863    0.0700
     39 H39       -12.7382    0.0906   63.2240 H       1  ZINC001085817863    0.0800
     40 H40        -9.2177   -1.2660   61.7863 H       1  ZINC001085817863    0.0900
     41 H41        -9.7856    0.3954   61.4938 H       1  ZINC001085817863    0.0500
     42 H42       -10.2967    1.8952   63.3952 H       1  ZINC001085817863    0.1300
     43 H43        -9.7409    2.4130   65.7628 H       1  ZINC001085817863    0.1300
     44 H44        -8.7293    0.6649   67.1714 H       1  ZINC001085817863    0.1600
     45 H45        -8.7992   -2.0518   64.0344 H       1  ZINC001085817863    0.1500
     46 H46       -13.3073    0.2591   57.6556 H       1  ZINC001085817863    0.1600
     47 H47       -15.8997   -0.1247   57.6609 H       1  ZINC001085817863    0.1600
     48 H48       -17.0488   -3.0015   56.6296 H       1  ZINC001085817863    0.0800
     49 H49       -16.6723   -3.8160   58.1668 H       1  ZINC001085817863    0.0900
     50 H50       -17.4167   -2.1992   58.1753 H       1  ZINC001085817863    0.0900
@<TRIPOS>BOND
     1     1     2    1
     2     1    26    1
     3     1    27    1
     4     1    28    1
     5     2     3    1
     6     2    29    1
     7     2    30    1
     8     3    24    1
     9     3     4    2
    10     4     5    1
    11     4    22    1
    12     5     6    2
    13     5     7   am
    14     7     8    1
    15     7     9    1
    16     8    31    1
    17     8    32    1
    18     8    33    1
    19     9    10    1
    20     9    34    1
    21     9    35    1
    22    10    11    1
    23    10    14    1
    24    10    12    1
    25    12    13    1
    26    12    36    1
    27    12    37    1
    28    13    14    1
    29    13    38    1
    30    13    39    1
    31    14    15    1
    32    15    16    1
    33    15    40    1
    34    15    41    1
    35    16    21   ar
    36    16    17   ar
    37    17    18   ar
    38    17    42    1
    39    18    19   ar
    40    18    43    1
    41    19    20   ar
    42    19    44    1
    43    20    21   ar
    44    21    45    1
    45    22    23    2
    46    22    46    1
    47    23    24    1
    48    23    47    1
    49    24    25    1
    50    25    48    1
    51    25    49    1
    52    25    50    1
@<TRIPOS>SUBSTRUCTURE
     1 ZINC001085817863        1 TEMP              0 ****  ****    0 ROOT


##########                                Name:    ZINC000437443367
##########                DOCK_Rotatable_Bonds:                   8
##########                         Heavy_Atoms:                  24
##########                    Molecular_Weight:             334.434
##########                DOCK_Rotatable_Bonds:                   8
##########                       Formal_Charge:          -0.0500003
##########                     HBond_Acceptors:                   5
##########                        HBond_Donors:                   1
##########                         Heavy_Atoms:                  24
##########                          Grid_Score:          -25.286579
##########                     Grid_vdw_energy:          -25.330521
##########                      Grid_es_energy:            0.043942
##########           Internal_energy_repulsive:           22.556129

@<TRIPOS>MOLECULE
ZINC000437443367
 51 52 1 0 0
SMALL
USER_CHARGES


@<TRIPOS>ATOM
      1 C1        -16.7477   -4.3660   52.6162 C.3     1  ZINC000437443367   -0.1200
      2 C2        -16.0707   -4.9434   53.8325 C.ar    1  ZINC000437443367   -0.1000
      3 C3        -15.8710   -4.1568   54.9494 C.ar    1  ZINC000437443367   -0.1200
      4 C4        -15.2468   -4.6897   56.0705 C.ar    1  ZINC000437443367    0.1400
      5 N5        -15.0439   -3.8952   57.2029 N.am    1  ZINC000437443367   -0.6400
      6 C6        -14.2337   -2.8203   57.1356 C.2     1  ZINC000437443367    0.5000
      7 O7        -13.6801   -2.5419   56.0919 O.2     1  ZINC000437443367   -0.4800
      8 C8        -14.0170   -1.9717   58.3453 C.2     1  ZINC000437443367    0.5100
      9 O9        -14.9081   -1.2546   58.7509 O.2     1  ZINC000437443367   -0.5200
     10 N10       -12.8319   -2.0023   58.9864 N.am    1  ZINC000437443367   -0.5700
     11 C11       -12.6192   -1.1699   60.1731 C.3     1  ZINC000437443367    0.0900
     12 C12       -13.4401   -1.7248   61.3390 C.3     1  ZINC000437443367   -0.1200
     13 C13       -14.2760   -0.6009   61.9545 C.3     1  ZINC000437443367   -0.0900
     14 C14       -15.3672   -1.2039   62.8414 C.3     1  ZINC000437443367   -0.1400
     15 C15       -13.3740    0.3022   62.7983 C.3     1  ZINC000437443367   -0.1500
     16 C16       -11.7564   -2.8681   58.4966 C.3     1  ZINC000437443367    0.1300
     17 C17       -10.6930   -2.0257   57.7622 C.3     1  ZINC000437443367   -0.1300
     18 C18        -9.6146   -1.7519   58.8398 C.3     1  ZINC000437443367   -0.1300
     19 C19        -9.5693   -3.0865   59.6247 C.3     1  ZINC000437443367   -0.1200
     20 C20       -11.0420   -3.5426   59.6809 C.3     1  ZINC000437443367   -0.1400
     21 C21       -14.8251   -6.0131   56.0647 C.ar    1  ZINC000437443367   -0.1100
     22 C22       -15.0270   -6.7962   54.9451 C.ar    1  ZINC000437443367   -0.1300
     23 C23       -15.6544   -6.2645   53.8310 C.ar    1  ZINC000437443367    0.0800
     24 F24       -15.8508   -7.0323   52.7369 F       1  ZINC000437443367   -0.1400
     25 H25       -17.8246   -4.5151   52.6946 H       1  ZINC000437443367    0.0800
     26 H26       -16.5323   -3.2995   52.5525 H       1  ZINC000437443367    0.0700
     27 H27       -16.3759   -4.8658   51.7218 H       1  ZINC000437443367    0.0700
     28 H28       -16.1994   -3.1280   54.9517 H       1  ZINC000437443367    0.1400
     29 H29       -15.4864   -4.1176   58.0369 H       1  ZINC000437443367    0.4200
     30 H30       -11.5618   -1.1773   60.4372 H       1  ZINC000437443367    0.0900
     31 H31       -12.9338   -0.1480   59.9611 H       1  ZINC000437443367    0.1000
     32 H32       -14.1007   -2.5121   60.9760 H       1  ZINC000437443367    0.0700
     33 H33       -12.7685   -2.1334   62.0941 H       1  ZINC000437443367    0.0600
     34 H34       -14.7368   -0.0139   61.1599 H       1  ZINC000437443367    0.0600
     35 H35       -14.9064   -1.7908   63.6359 H       1  ZINC000437443367    0.0600
     36 H36       -15.9627   -0.4032   63.2799 H       1  ZINC000437443367    0.0400
     37 H37       -16.0097   -1.8472   62.2403 H       1  ZINC000437443367    0.0600
     38 H38       -12.5967    0.7318   62.1664 H       1  ZINC000437443367    0.0500
     39 H39       -13.9696    1.1029   63.2368 H       1  ZINC000437443367    0.0500
     40 H40       -12.9133   -0.2847   63.5927 H       1  ZINC000437443367    0.0500
     41 H41       -12.1629   -3.6249   57.8256 H       1  ZINC000437443367    0.1000
     42 H42       -10.2676   -2.5884   56.9313 H       1  ZINC000437443367    0.0800
     43 H43       -11.1253   -1.0896   57.4088 H       1  ZINC000437443367    0.0700
     44 H44        -8.6501   -1.5432   58.3770 H       1  ZINC000437443367    0.0700
     45 H45        -9.9179   -0.9314   59.4901 H       1  ZINC000437443367    0.0700
     46 H46        -8.9626   -3.8206   59.0946 H       1  ZINC000437443367    0.0700
     47 H47        -9.1816   -2.9246   60.6305 H       1  ZINC000437443367    0.0700
     48 H48       -11.4955   -3.2258   60.6201 H       1  ZINC000437443367    0.0800
     49 H49       -11.1010   -4.6267   59.5842 H       1  ZINC000437443367    0.0700
     50 H50       -14.3394   -6.4293   56.9349 H       1  ZINC000437443367    0.1600
     51 H51       -14.6993   -7.8253   54.9402 H       1  ZINC000437443367    0.1400
@<TRIPOS>BOND
     1     1     2    1
     2     1    25    1
     3     1    26    1
     4     1    27    1
     5     2    23   ar
     6     2     3   ar
     7     3     4   ar
     8     3    28    1
     9     4     5    1
    10     4    21   ar
    11     5     6   am
    12     5    29    1
    13     6     7    2
    14     6     8    1
    15     8     9    2
    16     8    10   am
    17    10    11    1
    18    10    16    1
    19    11    12    1
    20    11    30    1
    21    11    31    1
    22    12    13    1
    23    12    32    1
    24    12    33    1
    25    13    14    1
    26    13    15    1
    27    13    34    1
    28    14    35    1
    29    14    36    1
    30    14    37    1
    31    15    38    1
    32    15    39    1
    33    15    40    1
    34    16    20    1
    35    16    17    1
    36    16    41    1
    37    17    18    1
    38    17    42    1
    39    17    43    1
    40    18    19    1
    41    18    44    1
    42    18    45    1
    43    19    20    1
    44    19    46    1
    45    19    47    1
    46    20    48    1
    47    20    49    1
    48    21    22   ar
    49    21    50    1
    50    22    23   ar
    51    22    51    1
    52    23    24    1
@<TRIPOS>SUBSTRUCTURE
     1 ZINC000437443367        1 TEMP              0 ****  ****    0 ROOT


##########                                Name:    ZINC001091652821
##########                DOCK_Rotatable_Bonds:                   4
##########                         Heavy_Atoms:                  24
##########                    Molecular_Weight:             345.465
##########                DOCK_Rotatable_Bonds:                   4
##########                       Formal_Charge:          -0.0199997
##########                     HBond_Acceptors:                   6
##########                        HBond_Donors:                   0
##########                         Heavy_Atoms:                  24
##########                          Grid_Score:          -25.278236
##########                     Grid_vdw_energy:          -25.704258
##########                      Grid_es_energy:            0.426022
##########           Internal_energy_repulsive:            5.614507

@<TRIPOS>MOLECULE
ZINC001091652821
 47 50 1 0 0
SMALL
USER_CHARGES


@<TRIPOS>ATOM
      1 C1         -6.1126    3.5803   52.6624 C.3     1  ZINC001091652821   -0.1000
      2 C2         -6.6955    2.1954   52.5462 C.2     1  ZINC001091652821   -0.1200
      3 C3         -5.9344    1.1077   52.3785 C.2     1  ZINC001091652821   -0.2400
      4 S4         -6.8939   -0.2998   52.2833 S.3     1  ZINC001091652821    0.2100
      5 C5         -8.3701    0.6352   52.4791 C.2     1  ZINC001091652821   -0.2700
      6 C6         -9.7285    0.0847   52.5036 C.2     1  ZINC001091652821    0.6100
      7 O7        -10.0716   -0.7264   51.6636 O.2     1  ZINC001091652821   -0.5200
      8 N8        -10.5975    0.4770   53.4562 N.am    1  ZINC001091652821   -0.6200
      9 C9        -11.9862    0.0184   53.6232 C.3     1  ZINC001091652821    0.0900
     10 C10       -12.2805    0.0649   55.1315 C.3     1  ZINC001091652821   -0.0900
     11 H11       -13.2913    0.4153   55.3405 H       1  ZINC001091652821    0.1100
     12 C12       -12.0124   -1.3271   55.7409 C.3     1  ZINC001091652821    0.0400
     13 N13       -11.2776   -1.0512   57.0019 N.3     1  ZINC001091652821   -0.5000
     14 C14       -10.5311   -2.2357   57.4462 C.3     1  ZINC001091652821    0.1200
     15 C15       -10.1653   -2.0827   58.9001 C.2     1  ZINC001091652821    0.0000
     16 C16        -9.1045   -2.6337   59.5129 C.2     1  ZINC001091652821   -0.0800
     17 O17        -9.1475   -2.2482   60.8033 O.3     1  ZINC001091652821   -0.2000
     18 C18       -10.2274   -1.4714   60.9618 C.2     1  ZINC001091652821    0.1900
     19 C19       -10.6595   -0.8217   62.2510 C.3     1  ZINC001091652821   -0.0600
     20 N20       -10.8388   -1.3652   59.8167 N.2     1  ZINC001091652821   -0.4700
     21 C21       -10.3551    0.0586   56.6508 C.3     1  ZINC001091652821    0.0400
     22 C22       -11.2010    1.0037   55.7295 C.3     1  ZINC001091652821   -0.0700
     23 C23       -11.7873    2.1861   56.5034 C.3     1  ZINC001091652821   -0.1300
     24 C24       -10.3410    1.4432   54.5368 C.3     1  ZINC001091652821    0.1200
     25 C25        -8.0478    1.9566   52.6106 C.2     1  ZINC001091652821   -0.0500
     26 H26        -5.9033    3.7997   53.7094 H       1  ZINC001091652821    0.0700
     27 H27        -5.1878    3.6345   52.0879 H       1  ZINC001091652821    0.0700
     28 H28        -6.8249    4.3081   52.2740 H       1  ZINC001091652821    0.0700
     29 H29        -4.8565    1.1193   52.3117 H       1  ZINC001091652821    0.1700
     30 H30       -12.6661    0.6821   53.0887 H       1  ZINC001091652821    0.0800
     31 H31       -12.0903   -1.0015   53.2530 H       1  ZINC001091652821    0.0800
     32 H32       -12.9524   -1.8365   55.9528 H       1  ZINC001091652821    0.0800
     33 H33       -11.3989   -1.9250   55.0670 H       1  ZINC001091652821    0.0500
     34 H34       -11.1498   -3.1240   57.3189 H       1  ZINC001091652821    0.0500
     35 H35        -9.6231   -2.3371   56.8518 H       1  ZINC001091652821    0.1000
     36 H36        -8.3576   -3.2668   59.0569 H       1  ZINC001091652821    0.2100
     37 H37        -9.9560   -1.0809   63.0423 H       1  ZINC001091652821    0.0900
     38 H38       -10.6799    0.2607   62.1235 H       1  ZINC001091652821    0.1000
     39 H39       -11.6551   -1.1747   62.5201 H       1  ZINC001091652821    0.1000
     40 H40       -10.0457    0.5938   57.5485 H       1  ZINC001091652821    0.0900
     41 H41        -9.4852   -0.3248   56.1175 H       1  ZINC001091652821    0.0500
     42 H42       -10.9775    2.7820   56.9245 H       1  ZINC001091652821    0.0600
     43 H43       -12.3801    2.8038   55.8288 H       1  ZINC001091652821    0.0600
     44 H44       -12.4217    1.8149   57.3083 H       1  ZINC001091652821    0.0700
     45 H45        -9.2848    1.4086   54.8043 H       1  ZINC001091652821    0.0900
     46 H46       -10.6164    2.4518   54.2286 H       1  ZINC001091652821    0.0800
     47 H47        -8.7828    2.7366   52.7440 H       1  ZINC001091652821    0.1500
@<TRIPOS>BOND
     1     1     2    1
     2     1    26    1
     3     1    27    1
     4     1    28    1
     5     2    25    1
     6     2     3    2
     7     3     4    1
     8     3    29    1
     9     4     5    1
    10     5     6    1
    11     5    25    2
    12     6     7    2
    13     6     8   am
    14     8    24    1
    15     8     9    1
    16     9    10    1
    17     9    30    1
    18     9    31    1
    19    10    11    1
    20    10    22    1
    21    10    12    1
    22    12    13    1
    23    12    32    1
    24    12    33    1
    25    13    14    1
    26    13    21    1
    27    14    15    1
    28    14    34    1
    29    14    35    1
    30    15    20    1
    31    15    16    2
    32    16    17    1
    33    16    36    1
    34    17    18    1
    35    18    19    1
    36    18    20    2
    37    19    37    1
    38    19    38    1
    39    19    39    1
    40    21    22    1
    41    21    40    1
    42    21    41    1
    43    22    23    1
    44    22    24    1
    45    23    42    1
    46    23    43    1
    47    23    44    1
    48    24    45    1
    49    24    46    1
    50    25    47    1
@<TRIPOS>SUBSTRUCTURE
     1 ZINC001091652821        1 TEMP              0 ****  ****    0 ROOT


##########                                Name:    ZINC000518937710
##########                DOCK_Rotatable_Bonds:                   6
##########                         Heavy_Atoms:                  25
##########                    Molecular_Weight:             397.421
##########                DOCK_Rotatable_Bonds:                   6
##########                       Formal_Charge:          -0.0199997
##########                     HBond_Acceptors:                  11
##########                        HBond_Donors:                   0
##########                         Heavy_Atoms:                  25
##########                          Grid_Score:          -25.251396
##########                     Grid_vdw_energy:          -23.946980
##########                      Grid_es_energy:           -1.304416
##########           Internal_energy_repulsive:           19.248499

@<TRIPOS>MOLECULE
ZINC000518937710
 42 44 1 0 0
SMALL
USER_CHARGES


@<TRIPOS>ATOM
      1 C1        -12.5474    0.5068   60.0702 C.3     1  ZINC000518937710   -0.1900
      2 C2        -11.2273    0.3512   59.3126 C.3     1  ZINC000518937710    0.1700
      3 H3        -11.4319    0.2072   58.2517 H       1  ZINC000518937710    0.1100
      4 C4        -10.3790    1.6102   59.5022 C.3     1  ZINC000518937710   -0.6600
      5 S5        -10.5483    2.6785   58.0459 S.o2    1  ZINC000518937710    2.4000
      6 C6         -9.4816    4.0792   58.4825 C.3     1  ZINC000518937710   -0.6600
      7 O7         -9.9829    2.0106   56.9262 O.2     1  ZINC000518937710   -0.9200
      8 O8        -11.8914    3.1372   57.9745 O.2     1  ZINC000518937710   -0.9300
      9 N9        -10.5003   -0.8101   59.8315 N.am    1  ZINC000518937710   -0.9600
     10 C10       -10.4879   -1.0834   61.2707 C.3     1  ZINC000518937710    0.0800
     11 C11        -9.1299   -1.3284   61.9315 C.3     1  ZINC000518937710   -0.1800
     12 C12        -9.8797   -0.0193   62.1865 C.3     1  ZINC000518937710   -0.1800
     13 S13        -9.6925   -1.8139   58.7911 S.o2    1  ZINC000518937710    2.6900
     14 O14        -8.8305   -0.9857   58.0226 O.2     1  ZINC000518937710   -0.9400
     15 O15        -9.2283   -2.9086   59.5690 O.2     1  ZINC000518937710   -0.9400
     16 C16       -10.8827   -2.4697   57.6695 C.ar    1  ZINC000518937710   -0.6400
     17 C17       -11.4868   -3.6843   57.9354 C.ar    1  ZINC000518937710   -0.0300
     18 C18       -12.4212   -4.2019   57.0577 C.ar    1  ZINC000518937710   -0.1300
     19 C19       -12.7557   -3.5068   55.9106 C.ar    1  ZINC000518937710   -0.0300
     20 C20       -12.1542   -2.2890   55.6376 C.ar    1  ZINC000518937710    0.0200
     21 C21       -11.2168   -1.7650   56.5244 C.ar    1  ZINC000518937710    0.1900
     22 O22       -10.7751   -0.5693   56.0361 O.3     1  ZINC000518937710   -0.2800
     23 C23       -11.1461   -0.5615   54.6449 C.3     1  ZINC000518937710    0.5700
     24 F24       -11.4792    0.7331   54.2323 F       1  ZINC000518937710   -0.1200
     25 F25       -10.1107   -1.0758   53.8571 F       1  ZINC000518937710   -0.1400
     26 O26       -12.3032   -1.4193   54.5960 O.3     1  ZINC000518937710   -0.2900
     27 H27       -12.3443    0.6141   61.1357 H       1  ZINC000518937710    0.1000
     28 H28       -13.0713    1.3918   59.7092 H       1  ZINC000518937710    0.0800
     29 H29       -13.1669   -0.3747   59.9053 H       1  ZINC000518937710    0.0700
     30 H30       -10.7185    2.1471   60.3879 H       1  ZINC000518937710    0.1600
     31 H31        -9.3334    1.3286   59.6265 H       1  ZINC000518937710    0.1400
     32 H32        -8.4478    3.7409   58.5516 H       1  ZINC000518937710    0.1300
     33 H33        -9.5613    4.8495   57.7153 H       1  ZINC000518937710    0.1300
     34 H34        -9.7948    4.4889   59.4427 H       1  ZINC000518937710    0.1300
     35 H35       -11.3412   -1.6457   61.6499 H       1  ZINC000518937710    0.1500
     36 H36        -9.0896   -2.0521   62.7456 H       1  ZINC000518937710    0.1100
     37 H37        -8.2457   -1.2862   61.2954 H       1  ZINC000518937710    0.1000
     38 H38        -9.4889    0.8840   61.7183 H       1  ZINC000518937710    0.1000
     39 H39       -10.3327    0.1182   63.1684 H       1  ZINC000518937710    0.1000
     40 H40       -11.2281   -4.2303   58.8307 H       1  ZINC000518937710    0.1600
     41 H41       -12.8904   -5.1515   57.2685 H       1  ZINC000518937710    0.1600
     42 H42       -13.4859   -3.9136   55.2267 H       1  ZINC000518937710    0.1500
@<TRIPOS>BOND
     1     1     2    1
     2     1    27    1
     3     1    28    1
     4     1    29    1
     5     2     3    1
     6     2     4    1
     7     2     9    1
     8     4     5    1
     9     4    30    1
    10     4    31    1
    11     5     6    1
    12     5     7    2
    13     5     8    2
    14     6    32    1
    15     6    33    1
    16     6    34    1
    17     9    10    1
    18     9    13   am
    19    10    12    1
    20    10    11    1
    21    10    35    1
    22    11    12    1
    23    11    36    1
    24    11    37    1
    25    12    38    1
    26    12    39    1
    27    13    14    2
    28    13    15    2
    29    13    16    1
    30    16    21   ar
    31    16    17   ar
    32    17    18   ar
    33    17    40    1
    34    18    19   ar
    35    18    41    1
    36    19    20   ar
    37    19    42    1
    38    20    26    1
    39    20    21   ar
    40    21    22    1
    41    22    23    1
    42    23    24    1
    43    23    25    1
    44    23    26    1
@<TRIPOS>SUBSTRUCTURE
     1 ZINC000518937710        1 TEMP              0 ****  ****    0 ROOT


##########                                Name:    ZINC000330515179
##########                DOCK_Rotatable_Bonds:                   4
##########                         Heavy_Atoms:                  21
##########                    Molecular_Weight:             378.287
##########                DOCK_Rotatable_Bonds:                   4
##########                       Formal_Charge:           0.0200002
##########                     HBond_Acceptors:                   6
##########                        HBond_Donors:                   0
##########                         Heavy_Atoms:                  21
##########                          Grid_Score:          -25.232502
##########                     Grid_vdw_energy:          -24.566780
##########                      Grid_es_energy:           -0.665723
##########           Internal_energy_repulsive:            9.984270

@<TRIPOS>MOLECULE
ZINC000330515179
 41 42 1 0 0
SMALL
USER_CHARGES


@<TRIPOS>ATOM
      1 C1         -1.4950    0.4569   49.4181 C.3     1  ZINC000330515179    0.0300
      2 O2         -2.0699    1.5795   48.7462 O.3     1  ZINC000330515179   -0.3800
      3 C3         -1.1203    2.5760   48.3625 C.3     1  ZINC000330515179    0.0700
      4 C4         -0.3432    2.0945   47.1357 C.3     1  ZINC000330515179    0.0800
      5 H5          0.6258    1.7052   47.4483 H       1  ZINC000330515179    0.0800
      6 C6         -0.1365    3.2657   46.1684 C.3     1  ZINC000330515179    0.0900
      7 N7          0.4430    2.7411   44.9216 N.am    1  ZINC000330515179   -1.0000
      8 S8          1.7960    3.4261   44.2562 S.o2    1  ZINC000330515179    2.6900
      9 O9          1.4670    3.7373   42.9093 O.2     1  ZINC000330515179   -0.9400
     10 O10         2.2546    4.3957   45.1882 O.2     1  ZINC000330515179   -0.9500
     11 C11         3.0349    2.1751   44.1894 C.ar    1  ZINC000330515179   -0.6700
     12 C12         3.0302    1.2520   43.1603 C.ar    1  ZINC000330515179   -0.0100
     13 C13         4.0021    0.2707   43.1073 C.ar    1  ZINC000330515179   -0.1100
     14 C14         4.9797    0.2124   44.0842 C.ar    1  ZINC000330515179   -0.0400
     15 Br15        6.3101   -1.1295   44.0119 Br      1  ZINC000330515179   -0.0300
     16 C16         4.9842    1.1362   45.1137 C.ar    1  ZINC000330515179   -0.1100
     17 C17         4.0149    2.1204   45.1630 C.ar    1  ZINC000330515179   -0.0100
     18 C18        -0.2154    1.5903   44.2834 C.3     1  ZINC000330515179    0.1000
     19 C19        -0.4182    0.5008   45.3426 C.3     1  ZINC000330515179    0.1000
     20 C20        -1.2712   -0.6272   44.7587 C.3     1  ZINC000330515179   -0.1400
     21 C21         0.9414   -0.0556   45.7702 C.3     1  ZINC000330515179   -0.1800
     22 O22        -1.0822    1.0633   46.4768 O.3     1  ZINC000330515179   -0.3500
     23 H23        -2.2804   -0.2536   49.6757 H       1  ZINC000330515179    0.0900
     24 H24        -0.7690   -0.0256   48.7635 H       1  ZINC000330515179    0.0400
     25 H25        -0.9970    0.7936   50.3273 H       1  ZINC000330515179    0.0400
     26 H26        -1.6425    3.5019   48.1214 H       1  ZINC000330515179    0.0600
     27 H27        -0.4274    2.7534   49.1850 H       1  ZINC000330515179    0.0700
     28 H28        -1.0945    3.7404   45.9567 H       1  ZINC000330515179    0.0900
     29 H29         0.5438    3.9926   46.6121 H       1  ZINC000330515179    0.1000
     30 H30         2.2665    1.2974   42.3979 H       1  ZINC000330515179    0.1500
     31 H31         3.9981   -0.4506   42.3036 H       1  ZINC000330515179    0.1500
     32 H32         5.7472    1.0911   45.8766 H       1  ZINC000330515179    0.1500
     33 H33         4.0182    2.8417   45.9668 H       1  ZINC000330515179    0.1500
     34 H34        -1.1814    1.8963   43.8819 H       1  ZINC000330515179    0.0900
     35 H35         0.4126    1.2077   43.4788 H       1  ZINC000330515179    0.1000
     36 H36        -0.7661   -1.0532   43.8918 H       1  ZINC000330515179    0.0800
     37 H37        -1.4150   -1.4015   45.5123 H       1  ZINC000330515179    0.0700
     38 H38        -2.2403   -0.2305   44.4558 H       1  ZINC000330515179    0.0700
     39 H39         1.5478    0.7481   46.1878 H       1  ZINC000330515179    0.0600
     40 H40         0.7964   -0.8301   46.5233 H       1  ZINC000330515179    0.0700
     41 H41         1.4485   -0.4812   44.9043 H       1  ZINC000330515179    0.0700
@<TRIPOS>BOND
     1     1     2    1
     2     1    23    1
     3     1    24    1
     4     1    25    1
     5     2     3    1
     6     3     4    1
     7     3    26    1
     8     3    27    1
     9     4     5    1
    10     4    22    1
    11     4     6    1
    12     6     7    1
    13     6    28    1
    14     6    29    1
    15     7     8   am
    16     7    18    1
    17     8     9    2
    18     8    10    2
    19     8    11    1
    20    11    17   ar
    21    11    12   ar
    22    12    13   ar
    23    12    30    1
    24    13    14   ar
    25    13    31    1
    26    14    15    1
    27    14    16   ar
    28    16    17   ar
    29    16    32    1
    30    17    33    1
    31    18    19    1
    32    18    34    1
    33    18    35    1
    34    19    20    1
    35    19    21    1
    36    19    22    1
    37    20    36    1
    38    20    37    1
    39    20    38    1
    40    21    39    1
    41    21    40    1
    42    21    41    1
@<TRIPOS>SUBSTRUCTURE
     1 ZINC000330515179        1 TEMP              0 ****  ****    0 ROOT


##########                                Name:    ZINC000252489163
##########                DOCK_Rotatable_Bonds:                   6
##########                         Heavy_Atoms:                  25
##########                    Molecular_Weight:             379.403
##########                DOCK_Rotatable_Bonds:                   6
##########                       Formal_Charge:          0.00999963
##########                     HBond_Acceptors:                  10
##########                        HBond_Donors:                   2
##########                         Heavy_Atoms:                  25
##########                          Grid_Score:          -25.219732
##########                     Grid_vdw_energy:          -23.490791
##########                      Grid_es_energy:           -1.728942
##########           Internal_energy_repulsive:           10.053677

@<TRIPOS>MOLECULE
ZINC000252489163
 45 46 1 0 0
SMALL
USER_CHARGES


@<TRIPOS>ATOM
      1 C1        -13.8610    3.5290   63.2389 C.3     1  ZINC000252489163   -0.1100
      2 C2        -12.7592    2.6156   63.7111 C.ar    1  ZINC000252489163   -0.0600
      3 C3        -12.1353    1.7682   62.8170 C.ar    1  ZINC000252489163   -0.1300
      4 C4        -11.1197    0.9270   63.2528 C.ar    1  ZINC000252489163    0.1700
      5 N5        -10.4850    0.0674   62.3491 N.am    1  ZINC000252489163   -0.6800
      6 C6        -11.1411   -1.0062   61.8660 C.2     1  ZINC000252489163    0.7100
      7 O7        -12.2844   -1.2279   62.2153 O.2     1  ZINC000252489163   -0.5500
      8 N8        -10.5298   -1.8341   60.9957 N.am    1  ZINC000252489163   -0.6200
      9 C9         -9.1485   -1.5795   60.5643 C.3     1  ZINC000252489163    0.1000
     10 C10        -9.1070   -1.5542   59.0332 C.3     1  ZINC000252489163   -0.1400
     11 C11        -9.7059   -2.8532   58.4891 C.3     1  ZINC000252489163   -0.1300
     12 C12       -11.1668   -2.9676   58.9308 C.3     1  ZINC000252489163    0.1400
     13 H13       -11.7256   -2.1058   58.5660 H       1  ZINC000252489163    0.0900
     14 N14       -11.7486   -4.1954   58.3829 N.am    1  ZINC000252489163   -1.1100
     15 S15       -13.1910   -4.1376   57.5713 S.o2    1  ZINC000252489163    2.6100
     16 C16       -12.8798   -3.0239   56.1737 C.3     1  ZINC000252489163   -0.6700
     17 O17       -13.3893   -5.4683   57.1140 O.2     1  ZINC000252489163   -0.9500
     18 O18       -14.0893   -3.5390   58.4955 O.2     1  ZINC000252489163   -0.9500
     19 C19       -11.2297   -3.0119   60.4651 C.3     1  ZINC000252489163    0.1100
     20 C20       -10.7351    0.9411   64.5868 C.ar    1  ZINC000252489163   -0.1000
     21 C21       -11.3633    1.7911   65.4762 C.ar    1  ZINC000252489163   -0.1600
     22 C22       -10.9465    1.8071   66.9244 C.3     1  ZINC000252489163    0.5100
     23 F23       -10.4706    3.0794   67.2587 F       1  ZINC000252489163   -0.1700
     24 F24       -12.0469    1.4943   67.7298 F       1  ZINC000252489163   -0.1800
     25 F25        -9.9353    0.8622   67.1291 F       1  ZINC000252489163   -0.1800
     26 C26       -12.3704    2.6311   65.0382 C.ar    1  ZINC000252489163   -0.0900
     27 H27       -13.4326    4.4769   62.9132 H       1  ZINC000252489163    0.0800
     28 H28       -14.3875    3.0630   62.4061 H       1  ZINC000252489163    0.0700
     29 H29       -14.5599    3.7079   64.0561 H       1  ZINC000252489163    0.0700
     30 H30       -12.4368    1.7593   61.7800 H       1  ZINC000252489163    0.1300
     31 H31        -9.5728    0.2441   62.0705 H       1  ZINC000252489163    0.4100
     32 H32        -8.8152   -0.6179   60.9548 H       1  ZINC000252489163    0.0800
     33 H33        -8.4981   -2.3719   60.9346 H       1  ZINC000252489163    0.0800
     34 H34        -9.6852   -0.7058   58.6674 H       1  ZINC000252489163    0.0700
     35 H35        -8.0736   -1.4621   58.6987 H       1  ZINC000252489163    0.0900
     36 H36        -9.6551   -2.8485   57.4003 H       1  ZINC000252489163    0.0800
     37 H37        -9.1423   -3.7027   58.8751 H       1  ZINC000252489163    0.0800
     38 H38       -11.2889   -5.0421   58.4954 H       1  ZINC000252489163    0.4200
     39 H39       -12.0807   -3.4321   55.5549 H       1  ZINC000252489163    0.1300
     40 H40       -13.7872   -2.9264   55.5778 H       1  ZINC000252489163    0.1300
     41 H41       -12.5843   -2.0440   56.5487 H       1  ZINC000252489163    0.1300
     42 H42       -10.7492   -3.9219   60.8244 H       1  ZINC000252489163    0.0800
     43 H43       -12.2704   -2.9935   60.7888 H       1  ZINC000252489163    0.1100
     44 H44        -9.9460    0.2879   64.9289 H       1  ZINC000252489163    0.1800
     45 H45       -12.8596    3.2950   65.7354 H       1  ZINC000252489163    0.1300
@<TRIPOS>BOND
     1     1     2    1
     2     1    27    1
     3     1    28    1
     4     1    29    1
     5     2    26   ar
     6     2     3   ar
     7     3     4   ar
     8     3    30    1
     9     4     5    1
    10     4    20   ar
    11     5     6   am
    12     5    31    1
    13     6     7    2
    14     6     8   am
    15     8    19    1
    16     8     9    1
    17     9    10    1
    18     9    32    1
    19     9    33    1
    20    10    11    1
    21    10    34    1
    22    10    35    1
    23    11    12    1
    24    11    36    1
    25    11    37    1
    26    12    13    1
    27    12    14    1
    28    12    19    1
    29    14    15   am
    30    14    38    1
    31    15    16    1
    32    15    17    2
    33    15    18    2
    34    16    39    1
    35    16    40    1
    36    16    41    1
    37    19    42    1
    38    19    43    1
    39    20    21   ar
    40    20    44    1
    41    21    22    1
    42    21    26   ar
    43    22    23    1
    44    22    24    1
    45    22    25    1
    46    26    45    1
@<TRIPOS>SUBSTRUCTURE
     1 ZINC000252489163        1 TEMP              0 ****  ****    0 ROOT


##########                                Name:    ZINC000742270208
##########                DOCK_Rotatable_Bonds:                   5
##########                         Heavy_Atoms:                  25
##########                    Molecular_Weight:             376.328
##########                DOCK_Rotatable_Bonds:                   5
##########                       Formal_Charge:                0.02
##########                     HBond_Acceptors:                   9
##########                        HBond_Donors:                   0
##########                         Heavy_Atoms:                  25
##########                          Grid_Score:          -25.099030
##########                     Grid_vdw_energy:          -25.918461
##########                      Grid_es_energy:            0.819431
##########           Internal_energy_repulsive:           12.447800

@<TRIPOS>MOLECULE
ZINC000742270208
 37 38 1 0 0
SMALL
USER_CHARGES


@<TRIPOS>ATOM
      1 C1        -14.4219   -4.4492   55.8655 C.3     1  ZINC000742270208   -0.1400
      2 C2        -14.2441   -3.8725   57.2716 C.3     1  ZINC000742270208   -0.1400
      3 C3        -15.3652   -4.3844   58.1782 C.3     1  ZINC000742270208   -0.1400
      4 C4        -12.9117   -4.3051   57.8271 C.2     1  ZINC000742270208    0.4000
      5 O5        -12.4397   -5.3751   57.5068 O.2     1  ZINC000742270208   -0.4300
      6 C6        -12.1833   -3.4288   58.7584 C.ar    1  ZINC000742270208   -0.1000
      7 C7        -10.8532   -3.7060   59.0896 C.ar    1  ZINC000742270208   -0.0900
      8 C8        -10.1775   -2.8802   59.9630 C.ar    1  ZINC000742270208   -0.0200
      9 C9        -10.8124   -1.7797   60.5118 C.ar    1  ZINC000742270208   -0.6800
     10 S10        -9.9403   -0.7305   61.6269 S.o2    1  ZINC000742270208    2.6600
     11 O11        -8.7695   -1.4381   62.0111 O.2     1  ZINC000742270208   -0.9300
     12 O12        -9.9084    0.5564   61.0251 O.2     1  ZINC000742270208   -0.9000
     13 O13       -10.7930   -0.5976   62.8807 O.3     1  ZINC000742270208   -0.6400
     14 C14       -10.3426    0.3376   63.7595 C.ar    1  ZINC000742270208    0.0500
     15 C15        -9.4104   -0.0101   64.7273 C.ar    1  ZINC000742270208    0.0900
     16 F16        -8.9495   -1.2782   64.7973 F       1  ZINC000742270208   -0.0900
     17 C17        -8.9525    0.9442   65.6212 C.ar    1  ZINC000742270208    0.1100
     18 F18        -8.0452    0.6062   66.5634 F       1  ZINC000742270208   -0.1000
     19 C19        -9.4237    2.2439   65.5493 C.ar    1  ZINC000742270208   -0.1100
     20 C20       -10.3538    2.5925   64.5850 C.ar    1  ZINC000742270208    0.1200
     21 F21       -10.8123    3.8616   64.5168 F       1  ZINC000742270208   -0.1000
     22 C22       -10.8103    1.6424   63.6859 C.ar    1  ZINC000742270208    0.1200
     23 F23       -11.7175    1.9833   62.7448 F       1  ZINC000742270208   -0.0900
     24 C24       -12.1286   -1.4986   60.1890 C.ar    1  ZINC000742270208   -0.0300
     25 C25       -12.8160   -2.3113   59.3124 C.ar    1  ZINC000742270208   -0.0800
     26 H26       -15.3856   -4.1364   55.4637 H       1  ZINC000742270208    0.0700
     27 H27       -13.6232   -4.0846   55.2197 H       1  ZINC000742270208    0.0600
     28 H28       -14.3835   -5.5376   55.9117 H       1  ZINC000742270208    0.0600
     29 H29       -14.2825   -2.7842   57.2254 H       1  ZINC000742270208    0.1000
     30 H30       -15.3268   -5.4727   58.2244 H       1  ZINC000742270208    0.0700
     31 H31       -15.2385   -3.9737   59.1799 H       1  ZINC000742270208    0.0600
     32 H32       -16.3289   -4.0716   57.7764 H       1  ZINC000742270208    0.0700
     33 H33       -10.3566   -4.5648   58.6627 H       1  ZINC000742270208    0.1500
     34 H34        -9.1503   -3.0929   60.2198 H       1  ZINC000742270208    0.1500
     35 H35        -9.0656    2.9868   66.2466 H       1  ZINC000742270208    0.1900
     36 H36       -12.6173   -0.6380   60.6214 H       1  ZINC000742270208    0.1500
     37 H37       -13.8430   -2.0907   59.0614 H       1  ZINC000742270208    0.1500
@<TRIPOS>BOND
     1     1     2    1
     2     1    26    1
     3     1    27    1
     4     1    28    1
     5     2     3    1
     6     2     4    1
     7     2    29    1
     8     3    30    1
     9     3    31    1
    10     3    32    1
    11     4     5    2
    12     4     6    1
    13     6    25   ar
    14     6     7   ar
    15     7     8   ar
    16     7    33    1
    17     8     9   ar
    18     8    34    1
    19     9    10    1
    20     9    24   ar
    21    10    11    2
    22    10    12    2
    23    10    13    1
    24    13    14    1
    25    14    22   ar
    26    14    15   ar
    27    15    16    1
    28    15    17   ar
    29    17    18    1
    30    17    19   ar
    31    19    20   ar
    32    19    35    1
    33    20    21    1
    34    20    22   ar
    35    22    23    1
    36    24    25   ar
    37    24    36    1
    38    25    37    1
@<TRIPOS>SUBSTRUCTURE
     1 ZINC000742270208        1 TEMP              0 ****  ****    0 ROOT


##########                                Name:    ZINC000939075213
##########                DOCK_Rotatable_Bonds:                   7
##########                         Heavy_Atoms:                  24
##########                    Molecular_Weight:             327.426
##########                DOCK_Rotatable_Bonds:                   7
##########                       Formal_Charge:          -0.0200002
##########                     HBond_Acceptors:                   5
##########                        HBond_Donors:                   2
##########                         Heavy_Atoms:                  24
##########                          Grid_Score:          -25.014547
##########                     Grid_vdw_energy:          -24.596066
##########                      Grid_es_energy:           -0.418482
##########           Internal_energy_repulsive:            7.800183

@<TRIPOS>MOLECULE
ZINC000939075213
 49 51 1 0 0
SMALL
USER_CHARGES


@<TRIPOS>ATOM
      1 C1         -9.4914   -0.9252   62.2235 C.3     1  ZINC000939075213   -0.1400
      2 C2        -10.5152   -1.8557   61.5704 C.3     1  ZINC000939075213   -0.1100
      3 H3        -10.9608   -2.5227   62.3085 H       1  ZINC000939075213    0.0900
      4 C4         -9.8752   -2.6590   60.4108 C.3     1  ZINC000939075213    0.1100
      5 N5        -11.0011   -3.0037   59.5239 N.am    1  ZINC000939075213   -0.6200
      6 C6        -11.0354   -4.0420   58.6653 C.2     1  ZINC000939075213    0.5600
      7 O7        -10.0783   -4.7896   58.5752 O.2     1  ZINC000939075213   -0.5400
      8 C8        -12.1837   -4.2636   57.8683 C.2     1  ZINC000939075213   -0.2600
      9 C9        -12.5615   -5.5292   57.5604 C.2     1  ZINC000939075213    0.0400
     10 C10       -13.7109   -5.7512   56.7626 C.2     1  ZINC000939075213    0.0000
     11 C11       -14.4613   -4.7826   56.1218 C.2     1  ZINC000939075213   -0.1500
     12 C12       -15.4964   -5.4415   55.4520 C.2     1  ZINC000939075213   -0.2200
     13 C13       -15.3664   -6.7695   55.6878 C.2     1  ZINC000939075213    0.0200
     14 N14       -14.2816   -6.9717   56.4786 N.pl3   1  ZINC000939075213   -0.5000
     15 C15       -12.0810   -2.0277   59.7317 C.3     1  ZINC000939075213    0.0900
     16 C16       -11.6068   -1.0446   60.8233 C.3     1  ZINC000939075213    0.1400
     17 H17       -11.1804   -0.1471   60.3751 H       1  ZINC000939075213    0.1100
     18 N18       -12.7095   -0.6983   61.7235 N.am    1  ZINC000939075213   -0.7200
     19 C19       -13.6043    0.2425   61.3622 C.2     1  ZINC000939075213    0.5300
     20 O20       -13.4957    0.8036   60.2924 O.2     1  ZINC000939075213   -0.5300
     21 C21       -14.7396    0.5974   62.2874 C.3     1  ZINC000939075213   -0.0600
     22 C22       -14.4050    0.1856   63.7224 C.3     1  ZINC000939075213   -0.1300
     23 C23       -15.0331    2.0779   62.2168 C.2     1  ZINC000939075213   -0.1700
     24 C24       -16.3173    2.2995   62.1429 C.2     1  ZINC000939075213   -0.1400
     25 C25       -17.0944    1.0038   62.1519 C.3     1  ZINC000939075213   -0.1100
     26 C26       -16.0470   -0.0850   61.8222 C.3     1  ZINC000939075213   -0.1100
     27 H27        -9.9854   -0.3148   62.9796 H       1  ZINC000939075213    0.0600
     28 H28        -8.7071   -1.5198   62.6923 H       1  ZINC000939075213    0.0700
     29 H29        -9.0520   -0.2782   61.4644 H       1  ZINC000939075213    0.0600
     30 H30        -9.1482   -2.0446   59.8797 H       1  ZINC000939075213    0.0700
     31 H31        -9.4019   -3.5638   60.7921 H       1  ZINC000939075213    0.0800
     32 H32       -12.7592   -3.4249   57.5053 H       1  ZINC000939075213    0.1300
     33 H33       -11.9859   -6.3679   57.9235 H       1  ZINC000939075213    0.1500
     34 H34       -14.2818   -3.7177   56.1364 H       1  ZINC000939075213    0.1400
     35 H35       -16.2640   -4.9746   54.8528 H       1  ZINC000939075213    0.1400
     36 H36       -16.0176   -7.5417   55.3056 H       1  ZINC000939075213    0.1600
     37 H37       -13.9650   -7.8321   56.7956 H       1  ZINC000939075213    0.4100
     38 H38       -12.2759   -1.4877   58.8051 H       1  ZINC000939075213    0.0800
     39 H39       -12.9848   -2.5397   60.0621 H       1  ZINC000939075213    0.0700
     40 H40       -12.7957   -1.1463   62.5795 H       1  ZINC000939075213    0.4000
     41 H41       -13.4974    0.6962   64.0446 H       1  ZINC000939075213    0.0600
     42 H42       -15.2293    0.4597   64.3807 H       1  ZINC000939075213    0.0700
     43 H43       -14.2496   -0.8924   63.7642 H       1  ZINC000939075213    0.0600
     44 H44       -14.2792    2.8512   62.2267 H       1  ZINC000939075213    0.1300
     45 H45       -16.7655    3.2803   62.0836 H       1  ZINC000939075213    0.1300
     46 H46       -17.5281    0.8278   63.1364 H       1  ZINC000939075213    0.0800
     47 H47       -17.8742    1.0234   61.3906 H       1  ZINC000939075213    0.0800
     48 H48       -16.0212   -0.2919   60.7523 H       1  ZINC000939075213    0.0900
     49 H49       -16.2369   -0.9955   62.3906 H       1  ZINC000939075213    0.0800
@<TRIPOS>BOND
     1     1     2    1
     2     1    27    1
     3     1    28    1
     4     1    29    1
     5     2     3    1
     6     2    16    1
     7     2     4    1
     8     4     5    1
     9     4    30    1
    10     4    31    1
    11     5     6   am
    12     5    15    1
    13     6     7    2
    14     6     8    1
    15     8     9    2
    16     8    32    1
    17     9    10    1
    18     9    33    1
    19    10    14    1
    20    10    11    2
    21    11    12    1
    22    11    34    1
    23    12    13    2
    24    12    35    1
    25    13    14    1
    26    13    36    1
    27    14    37    1
    28    15    16    1
    29    15    38    1
    30    15    39    1
    31    16    17    1
    32    16    18    1
    33    18    19   am
    34    18    40    1
    35    19    20    2
    36    19    21    1
    37    21    26    1
    38    21    22    1
    39    21    23    1
    40    22    41    1
    41    22    42    1
    42    22    43    1
    43    23    24    2
    44    23    44    1
    45    24    25    1
    46    24    45    1
    47    25    26    1
    48    25    46    1
    49    25    47    1
    50    26    48    1
    51    26    49    1
@<TRIPOS>SUBSTRUCTURE
     1 ZINC000939075213        1 TEMP              0 ****  ****    0 ROOT


##########                                Name:    ZINC001013196242
##########                DOCK_Rotatable_Bonds:                   5
##########                         Heavy_Atoms:                  24
##########                    Molecular_Weight:              349.86
##########                DOCK_Rotatable_Bonds:                   5
##########                       Formal_Charge:        -3.05474e-07
##########                     HBond_Acceptors:                   6
##########                        HBond_Donors:                   1
##########                         Heavy_Atoms:                  24
##########                          Grid_Score:          -25.013521
##########                     Grid_vdw_energy:          -25.965891
##########                      Grid_es_energy:            0.952369
##########           Internal_energy_repulsive:           14.182721

@<TRIPOS>MOLECULE
ZINC001013196242
 48 51 1 0 0
SMALL
USER_CHARGES


@<TRIPOS>ATOM
      1 C1        -10.5603   -3.7372   58.9363 C.3     1  ZINC001013196242   -0.1600
      2 C2        -11.2549   -2.3752   58.8781 C.3     1  ZINC001013196242    0.1400
      3 H3        -12.3344   -2.5121   58.8161 H       1  ZINC001013196242    0.0800
      4 C4        -10.7550   -1.5831   57.6515 C.3     1  ZINC001013196242   -0.1400
      5 C5        -10.6665   -0.1301   58.1888 C.3     1  ZINC001013196242    0.1300
      6 H6        -11.6407    0.3578   58.1582 H       1  ZINC001013196242    0.1100
      7 N7         -9.6704    0.6450   57.4449 N.am    1  ZINC001013196242   -0.7200
      8 C8         -9.3252    1.8782   57.8649 C.2     1  ZINC001013196242    0.5400
      9 O9         -9.8380    2.3455   58.8597 O.2     1  ZINC001013196242   -0.5200
     10 C10        -8.3020    2.6762   57.0987 C.3     1  ZINC001013196242   -0.1400
     11 C11        -7.4974    1.8382   56.0895 C.3     1  ZINC001013196242   -0.0800
     12 C12        -8.5885    2.1746   55.0672 C.3     1  ZINC001013196242   -0.1600
     13 C13        -8.5515    2.0191   53.5511 C.3     1  ZINC001013196242   -0.1700
     14 C14        -9.5706    1.2324   54.3800 C.3     1  ZINC001013196242   -0.1400
     15 C15        -8.8874    3.4311   55.8922 C.3     1  ZINC001013196242   -0.0800
     16 C16       -10.2094   -0.3662   59.6500 C.3     1  ZINC001013196242    0.0800
     17 N17       -10.9183   -1.5908   60.0751 N.am    1  ZINC001013196242   -0.6000
     18 C18       -11.2053   -1.9306   61.3473 C.2     1  ZINC001013196242    0.6100
     19 O19       -11.7945   -2.9694   61.5816 O.2     1  ZINC001013196242   -0.5400
     20 C20       -10.8076   -1.0485   62.4496 C.2     1  ZINC001013196242   -0.0400
     21 C21        -9.6707   -1.1695   63.2204 C.2     1  ZINC001013196242   -0.1400
     22 C22        -9.6893   -0.1223   64.1478 C.2     1  ZINC001013196242   -0.1200
     23 Cl23       -8.4865    0.1913   65.3597 Cl      1  ZINC001013196242   -0.0400
     24 C24       -10.8127    0.6041   63.9318 C.2     1  ZINC001013196242    0.0400
     25 N25       -11.4982    0.0541   62.8987 N.pl3   1  ZINC001013196242   -0.4000
     26 C26       -12.7669    0.5468   62.3566 C.3     1  ZINC001013196242    0.0700
     27 H27       -10.9139   -4.2884   59.8076 H       1  ZINC001013196242    0.0700
     28 H28       -10.7896   -4.3010   58.0319 H       1  ZINC001013196242    0.0700
     29 H29        -9.4825   -3.5925   59.0106 H       1  ZINC001013196242    0.0600
     30 H30        -9.7738   -1.9383   57.3368 H       1  ZINC001013196242    0.0900
     31 H31       -11.4711   -1.6484   56.8324 H       1  ZINC001013196242    0.0900
     32 H32        -9.2594    0.2706   56.6500 H       1  ZINC001013196242    0.4000
     33 H33        -7.6817    3.2987   57.7435 H       1  ZINC001013196242    0.1000
     34 H34        -6.5238    2.2637   55.8458 H       1  ZINC001013196242    0.1000
     35 H35        -7.4468    0.7793   56.3425 H       1  ZINC001013196242    0.0700
     36 H36        -8.9240    2.8489   52.9505 H       1  ZINC001013196242    0.1000
     37 H37        -7.7165    1.4653   53.1219 H       1  ZINC001013196242    0.0900
     38 H38        -9.4058    0.1612   54.4961 H       1  ZINC001013196242    0.0900
     39 H39       -10.6134    1.5450   54.3247 H       1  ZINC001013196242    0.1000
     40 H40        -9.9512    3.6491   55.9870 H       1  ZINC001013196242    0.0800
     41 H41        -8.3008    4.2999   55.5936 H       1  ZINC001013196242    0.0900
     42 H42        -9.1307   -0.5174   59.6903 H       1  ZINC001013196242    0.0800
     43 H43       -10.4991    0.4758   60.2787 H       1  ZINC001013196242    0.1000
     44 H44        -8.9096   -1.9299   63.1264 H       1  ZINC001013196242    0.1600
     45 H45       -11.1114    1.4800   64.4886 H       1  ZINC001013196242    0.1800
     46 H46       -12.5702    1.1893   61.4983 H       1  ZINC001013196242    0.0800
     47 H47       -13.3813   -0.2978   62.0449 H       1  ZINC001013196242    0.1000
     48 H48       -13.2931    1.1157   63.1231 H       1  ZINC001013196242    0.0900
@<TRIPOS>BOND
     1     1     2    1
     2     1    27    1
     3     1    28    1
     4     1    29    1
     5     2     3    1
     6     2    17    1
     7     2     4    1
     8     4     5    1
     9     4    30    1
    10     4    31    1
    11     5     6    1
    12     5     7    1
    13     5    16    1
    14     7     8   am
    15     7    32    1
    16     8     9    2
    17     8    10    1
    18    10    15    1
    19    10    11    1
    20    10    33    1
    21    11    12    1
    22    11    34    1
    23    11    35    1
    24    12    14    1
    25    12    13    1
    26    12    15    1
    27    13    14    1
    28    13    36    1
    29    13    37    1
    30    14    38    1
    31    14    39    1
    32    15    40    1
    33    15    41    1
    34    16    17    1
    35    16    42    1
    36    16    43    1
    37    17    18   am
    38    18    19    2
    39    18    20    1
    40    20    25    1
    41    20    21    2
    42    21    22    1
    43    21    44    1
    44    22    23    1
    45    22    24    2
    46    24    25    1
    47    24    45    1
    48    25    26    1
    49    26    46    1
    50    26    47    1
    51    26    48    1
@<TRIPOS>SUBSTRUCTURE
     1 ZINC001013196242        1 TEMP              0 ****  ****    0 ROOT


##########                                Name:    ZINC000179743483
##########                DOCK_Rotatable_Bonds:                   5
##########                         Heavy_Atoms:                  23
##########                    Molecular_Weight:             393.347
##########                DOCK_Rotatable_Bonds:                   5
##########                       Formal_Charge:          -0.0199999
##########                     HBond_Acceptors:                   4
##########                        HBond_Donors:                   0
##########                         Heavy_Atoms:                  23
##########                          Grid_Score:          -25.006718
##########                     Grid_vdw_energy:          -24.995523
##########                      Grid_es_energy:           -0.011194
##########           Internal_energy_repulsive:           23.439007

@<TRIPOS>MOLECULE
ZINC000179743483
 44 46 1 0 0
SMALL
USER_CHARGES


@<TRIPOS>ATOM
      1 C1        -13.5684   -2.6468   56.2369 C.3     1  ZINC000179743483   -0.1400
      2 C2        -13.1987   -1.3452   55.5226 C.3     1  ZINC000179743483   -0.1000
      3 H3        -13.9384   -1.1315   54.7509 H       1  ZINC000179743483    0.1000
      4 C4        -13.1717   -0.1980   56.5347 C.3     1  ZINC000179743483   -0.0700
      5 C5        -12.4746   -0.6529   57.7910 C.ar    1  ZINC000179743483   -0.0600
      6 C6        -11.0980   -0.5682   57.8867 C.ar    1  ZINC000179743483   -0.1100
      7 C7        -10.4584   -0.9849   59.0390 C.ar    1  ZINC000179743483   -0.0900
      8 C8        -11.1957   -1.4866   60.0964 C.ar    1  ZINC000179743483   -0.0900
      9 Br9       -10.3211   -2.0561   61.6733 Br      1  ZINC000179743483   -0.0500
     10 C10       -12.5730   -1.5710   60.0001 C.ar    1  ZINC000179743483   -0.0900
     11 C11       -13.2123   -1.1492   58.8495 C.ar    1  ZINC000179743483   -0.1100
     12 C12       -11.8390   -1.4884   54.8891 C.2     1  ZINC000179743483    0.5200
     13 O13       -11.0816   -2.3564   55.2685 O.2     1  ZINC000179743483   -0.5300
     14 N14       -11.4644   -0.6521   53.9008 N.am    1  ZINC000179743483   -0.6100
     15 C15       -12.3709    0.4042   53.4304 C.3     1  ZINC000179743483    0.1000
     16 C16       -11.6372    1.7476   53.4929 C.3     1  ZINC000179743483   -0.1400
     17 C17       -10.3282    1.6464   52.7065 C.3     1  ZINC000179743483   -0.1100
     18 C18        -9.4333    0.5774   53.3377 C.3     1  ZINC000179743483   -0.0200
     19 H19        -9.2361    0.8360   54.3781 H       1  ZINC000179743483    0.0900
     20 C20        -8.1312    0.5017   52.5828 C.2     1  ZINC000179743483    0.0500
     21 N21        -7.9035   -0.2767   51.5793 N.2     1  ZINC000179743483   -0.4700
     22 C22        -6.7063   -0.2167   51.0318 C.2     1  ZINC000179743483    0.0400
     23 C23        -5.8780    0.6613   51.6054 C.2     1  ZINC000179743483   -0.2600
     24 S24        -6.7441    1.4401   52.9276 S.3     1  ZINC000179743483    0.1300
     25 C25       -10.1396   -0.7753   53.2776 C.3     1  ZINC000179743483    0.1200
     26 H26       -12.7889   -2.9010   56.9552 H       1  ZINC000179743483    0.0700
     27 H27       -14.5162   -2.5180   56.7595 H       1  ZINC000179743483    0.0700
     28 H28       -13.6632   -3.4488   55.5048 H       1  ZINC000179743483    0.0600
     29 H29       -12.6357    0.6499   56.1085 H       1  ZINC000179743483    0.0900
     30 H30       -14.1926    0.1001   56.7732 H       1  ZINC000179743483    0.0800
     31 H31       -10.5225   -0.1770   57.0610 H       1  ZINC000179743483    0.1300
     32 H32        -9.3829   -0.9191   59.1135 H       1  ZINC000179743483    0.1300
     33 H33       -13.1490   -1.9625   60.8254 H       1  ZINC000179743483    0.1300
     34 H34       -14.2877   -1.2151   58.7743 H       1  ZINC000179743483    0.1300
     35 H35       -12.6695    0.1984   52.4025 H       1  ZINC000179743483    0.0700
     36 H36       -13.2533    0.4397   54.0693 H       1  ZINC000179743483    0.0900
     37 H37       -12.2643    2.5252   53.0570 H       1  ZINC000179743483    0.0800
     38 H38       -11.4193    1.9950   54.5318 H       1  ZINC000179743483    0.0700
     39 H39       -10.5453    1.3745   51.6735 H       1  ZINC000179743483    0.0800
     40 H40        -9.8159    2.6083   52.7288 H       1  ZINC000179743483    0.0700
     41 H41        -6.4181   -0.8273   50.1889 H       1  ZINC000179743483    0.1800
     42 H42        -4.8589    0.8609   51.3085 H       1  ZINC000179743483    0.1800
     43 H43        -9.5502   -1.5195   53.8134 H       1  ZINC000179743483    0.0900
     44 H44       -10.2584   -1.0798   52.2378 H       1  ZINC000179743483    0.0800
@<TRIPOS>BOND
     1     1     2    1
     2     1    26    1
     3     1    27    1
     4     1    28    1
     5     2     3    1
     6     2     4    1
     7     2    12    1
     8     4     5    1
     9     4    29    1
    10     4    30    1
    11     5    11   ar
    12     5     6   ar
    13     6     7   ar
    14     6    31    1
    15     7     8   ar
    16     7    32    1
    17     8     9    1
    18     8    10   ar
    19    10    11   ar
    20    10    33    1
    21    11    34    1
    22    12    13    2
    23    12    14   am
    24    14    25    1
    25    14    15    1
    26    15    16    1
    27    15    35    1
    28    15    36    1
    29    16    17    1
    30    16    37    1
    31    16    38    1
    32    17    18    1
    33    17    39    1
    34    17    40    1
    35    18    19    1
    36    18    20    1
    37    18    25    1
    38    20    24    1
    39    20    21    2
    40    21    22    1
    41    22    23    2
    42    22    41    1
    43    23    24    1
    44    23    42    1
    45    25    43    1
    46    25    44    1
@<TRIPOS>SUBSTRUCTURE
     1 ZINC000179743483        1 TEMP              0 ****  ****    0 ROOT


##########                                Name:    ZINC001362451754
##########                DOCK_Rotatable_Bonds:                   6
##########                         Heavy_Atoms:                  22
##########                    Molecular_Weight:             339.846
##########                DOCK_Rotatable_Bonds:                   6
##########                       Formal_Charge:         -0.00999987
##########                     HBond_Acceptors:                   7
##########                        HBond_Donors:                   1
##########                         Heavy_Atoms:                  22
##########                          Grid_Score:          -24.984858
##########                     Grid_vdw_energy:          -23.380775
##########                      Grid_es_energy:           -1.604082
##########           Internal_energy_repulsive:           15.215254

@<TRIPOS>MOLECULE
ZINC001362451754
 40 42 1 0 0
SMALL
USER_CHARGES


@<TRIPOS>ATOM
      1 C1          0.7497    3.1130   45.2886 C.3     1  ZINC001362451754   -0.1700
      2 C2         -0.0740    2.7155   46.5152 C.3     1  ZINC001362451754    0.1400
      3 H3         -0.8339    3.4710   46.7147 H       1  ZINC001362451754    0.0800
      4 C4         -0.7451    1.3466   46.2756 C.3     1  ZINC001362451754   -0.1000
      5 H5         -1.7311    1.3141   46.7390 H       1  ZINC001362451754    0.1000
      6 C6         -0.8387    1.0441   44.7787 C.3     1  ZINC001362451754    0.0900
      7 O7         -1.6212   -0.1347   44.5789 O.3     1  ZINC001362451754   -0.5700
      8 C8          0.2235    0.3574   46.9759 C.3     1  ZINC001362451754   -0.1200
      9 C9          0.6988    1.1909   48.1894 C.3     1  ZINC001362451754    0.0900
     10 N10         0.8066    2.5713   47.6836 N.am    1  ZINC001362451754   -0.6100
     11 C11         1.5877    3.5394   48.2027 C.2     1  ZINC001362451754    0.6100
     12 O12         1.5972    4.6480   47.7008 O.2     1  ZINC001362451754   -0.5200
     13 C13         2.4257    3.2568   49.3717 C.2     1  ZINC001362451754   -0.2500
     14 C14         3.7858    3.3798   49.4204 C.2     1  ZINC001362451754   -0.0500
     15 C15         4.3187    3.0430   50.6420 C.2     1  ZINC001362451754   -0.1100
     16 C16         3.4269    2.6672   51.5663 C.2     1  ZINC001362451754   -0.2500
     17 C17         3.7766    2.2585   52.9739 C.3     1  ZINC001362451754    0.2100
     18 N18         4.2504    0.8722   52.9765 N.pl3   1  ZINC001362451754   -0.3700
     19 C19         5.2386    0.3718   53.7489 C.2     1  ZINC001362451754    0.0700
     20 C20         5.3669   -0.9431   53.4535 C.2     1  ZINC001362451754   -0.1800
     21 Cl21        6.4970   -2.0465   54.1741 Cl      1  ZINC001362451754   -0.0400
     22 C22         4.4318   -1.2542   52.4601 C.2     1  ZINC001362451754    0.0700
     23 N23         3.7623   -0.1670   52.1739 N.2     1  ZINC001362451754   -0.2700
     24 S24         1.8420    2.7047   50.9357 S.3     1  ZINC001362451754    0.2300
     25 H25         1.5104    2.3553   45.1007 H       1  ZINC001362451754    0.0600
     26 H26         0.0944    3.1928   44.4212 H       1  ZINC001362451754    0.0700
     27 H27         1.2310    4.0740   45.4700 H       1  ZINC001362451754    0.0700
     28 H28        -1.3093    1.8838   44.2671 H       1  ZINC001362451754    0.0500
     29 H29         0.1623    0.8884   44.3762 H       1  ZINC001362451754    0.0500
     30 H30        -2.4396    0.0153   44.0861 H       1  ZINC001362451754    0.3800
     31 H31        -0.3020   -0.5414   47.2988 H       1  ZINC001362451754    0.0900
     32 H32         1.0617    0.1053   46.3263 H       1  ZINC001362451754    0.0800
     33 H33         1.6696    0.8370   48.5364 H       1  ZINC001362451754    0.0800
     34 H34        -0.0349    1.1378   48.9937 H       1  ZINC001362451754    0.0800
     35 H35         4.3830    3.7049   48.5813 H       1  ZINC001362451754    0.1600
     36 H36         5.3793    3.0824   50.8423 H       1  ZINC001362451754    0.1500
     37 H37         4.5608    2.9111   53.3577 H       1  ZINC001362451754    0.1100
     38 H38         2.8928    2.3415   53.6066 H       1  ZINC001362451754    0.1100
     39 H39         5.8204    0.9213   54.4741 H       1  ZINC001362451754    0.1800
     40 H40         4.2876   -2.2242   52.0076 H       1  ZINC001362451754    0.1900
@<TRIPOS>BOND
     1     1     2    1
     2     1    25    1
     3     1    26    1
     4     1    27    1
     5     2     3    1
     6     2    10    1
     7     2     4    1
     8     4     5    1
     9     4     6    1
    10     4     8    1
    11     6     7    1
    12     6    28    1
    13     6    29    1
    14     7    30    1
    15     8     9    1
    16     8    31    1
    17     8    32    1
    18     9    10    1
    19     9    33    1
    20     9    34    1
    21    10    11   am
    22    11    12    2
    23    11    13    1
    24    13    24    1
    25    13    14    2
    26    14    15    1
    27    14    35    1
    28    15    16    2
    29    15    36    1
    30    16    17    1
    31    16    24    1
    32    17    18    1
    33    17    37    1
    34    17    38    1
    35    18    23    1
    36    18    19    1
    37    19    20    2
    38    19    39    1
    39    20    21    1
    40    20    22    1
    41    22    23    2
    42    22    40    1
@<TRIPOS>SUBSTRUCTURE
     1 ZINC001362451754        1 TEMP              0 ****  ****    0 ROOT


##########                                Name:    ZINC000836820897
##########                DOCK_Rotatable_Bonds:                   5
##########                         Heavy_Atoms:                  22
##########                    Molecular_Weight:             330.355
##########                DOCK_Rotatable_Bonds:                   5
##########                       Formal_Charge:          -0.0200003
##########                     HBond_Acceptors:                   8
##########                        HBond_Donors:                   1
##########                         Heavy_Atoms:                  22
##########                          Grid_Score:          -24.934826
##########                     Grid_vdw_energy:          -24.157701
##########                      Grid_es_energy:           -0.777125
##########           Internal_energy_repulsive:            5.391156

@<TRIPOS>MOLECULE
ZINC000836820897
 38 40 1 0 0
SMALL
USER_CHARGES


@<TRIPOS>ATOM
      1 O1         -1.4711    2.7109   50.2652 O.2     1  ZINC000836820897   -0.5200
      2 C2         -0.4947    2.0882   49.8955 C.2     1  ZINC000836820897    0.5800
      3 C3         -0.5788    1.2238   48.7004 C.ar    1  ZINC000836820897   -0.1600
      4 C4         -1.1841   -0.0316   48.7849 C.ar    1  ZINC000836820897   -0.0100
      5 C5         -1.2603   -0.8338   47.6664 C.ar    1  ZINC000836820897   -0.1700
      6 C6         -0.7373   -0.3963   46.4594 C.ar    1  ZINC000836820897    0.2200
      7 F7         -0.8147   -1.1865   45.3663 F       1  ZINC000836820897   -0.1100
      8 C8         -0.1355    0.8499   46.3698 C.ar    1  ZINC000836820897   -0.7200
      9 S9          0.5256    1.3987   44.8315 S.o2    1  ZINC000836820897    2.7000
     10 O10        -0.5144    1.2553   43.8739 O.2     1  ZINC000836820897   -0.9400
     11 O11         1.1767    2.6344   45.0925 O.2     1  ZINC000836820897   -0.9400
     12 N12         1.7117    0.3275   44.3977 N.am    1  ZINC000836820897   -1.0800
     13 C13         2.8713    0.1259   45.2698 C.3     1  ZINC000836820897    0.0700
     14 C14         4.1684   -0.3596   44.6195 C.3     1  ZINC000836820897   -0.1800
     15 C15         4.0520    1.0854   45.1082 C.3     1  ZINC000836820897   -0.1900
     16 C16        -0.0583    1.6620   47.4807 C.ar    1  ZINC000836820897    0.0600
     17 N17         0.6661    2.1906   50.5727 N.am    1  ZINC000836820897   -0.6200
     18 C18         1.9212    1.5059   50.2301 C.3     1  ZINC000836820897    0.0900
     19 C19         2.9794    1.9442   51.2645 C.3     1  ZINC000836820897   -0.1600
     20 C20         2.4115    3.2872   51.7948 C.3     1  ZINC000836820897    0.0800
     21 H21         2.6650    4.1098   51.1261 H       1  ZINC000836820897    0.1100
     22 F22         2.8618    3.5438   53.0942 F       1  ZINC000836820897   -0.1900
     23 C23         0.8893    3.0126   51.7759 C.3     1  ZINC000836820897    0.0800
     24 H24        -1.5915   -0.3735   49.7248 H       1  ZINC000836820897    0.1500
     25 H25        -1.7280   -1.8053   47.7307 H       1  ZINC000836820897    0.1600
     26 H26         1.6385   -0.1664   43.5660 H       1  ZINC000836820897    0.4200
     27 H27         2.6473   -0.2317   46.2748 H       1  ZINC000836820897    0.1400
     28 H28         4.7978   -1.0370   45.1967 H       1  ZINC000836820897    0.1100
     29 H29         4.1588   -0.5292   43.5428 H       1  ZINC000836820897    0.1000
     30 H30         3.9660    1.8668   44.3531 H       1  ZINC000836820897    0.1000
     31 H31         4.6049    1.3589   46.0070 H       1  ZINC000836820897    0.1000
     32 H32         0.4104    2.6324   47.4098 H       1  ZINC000836820897    0.1600
     33 H33         1.7799    0.4262   50.2792 H       1  ZINC000836820897    0.0800
     34 H34         2.2398    1.7949   49.2285 H       1  ZINC000836820897    0.0800
     35 H35         3.0574    1.2137   52.0696 H       1  ZINC000836820897    0.0900
     36 H36         3.9467    2.0968   50.7857 H       1  ZINC000836820897    0.1000
     37 H37         0.3357    3.9491   51.7077 H       1  ZINC000836820897    0.1000
     38 H38         0.5925    2.4596   52.6671 H       1  ZINC000836820897    0.0900
@<TRIPOS>BOND
     1     1     2    2
     2     2     3    1
     3     2    17   am
     4     3    16   ar
     5     3     4   ar
     6     4     5   ar
     7     4    24    1
     8     5     6   ar
     9     5    25    1
    10     6     7    1
    11     6     8   ar
    12     8     9    1
    13     8    16   ar
    14     9    10    2
    15     9    11    2
    16     9    12   am
    17    12    13    1
    18    12    26    1
    19    13    15    1
    20    13    14    1
    21    13    27    1
    22    14    15    1
    23    14    28    1
    24    14    29    1
    25    15    30    1
    26    15    31    1
    27    16    32    1
    28    17    23    1
    29    17    18    1
    30    18    19    1
    31    18    33    1
    32    18    34    1
    33    19    20    1
    34    19    35    1
    35    19    36    1
    36    20    21    1
    37    20    22    1
    38    20    23    1
    39    23    37    1
    40    23    38    1
@<TRIPOS>SUBSTRUCTURE
     1 ZINC000836820897        1 TEMP              0 ****  ****    0 ROOT


##########                                Name:    ZINC000331626032
##########                DOCK_Rotatable_Bonds:                   5
##########                         Heavy_Atoms:                  25
##########                    Molecular_Weight:              339.44
##########                DOCK_Rotatable_Bonds:                   5
##########                       Formal_Charge:        -2.16067e-07
##########                     HBond_Acceptors:                   6
##########                        HBond_Donors:                   2
##########                         Heavy_Atoms:                  25
##########                          Grid_Score:          -24.880697
##########                     Grid_vdw_energy:          -24.281139
##########                      Grid_es_energy:           -0.599558
##########           Internal_energy_repulsive:           24.746208

@<TRIPOS>MOLECULE
ZINC000331626032
 50 52 1 0 0
SMALL
USER_CHARGES


@<TRIPOS>ATOM
      1 C1        -16.9283   -3.7658   60.2671 C.3     1  ZINC000331626032   -0.2000
      2 C2        -16.0789   -2.5332   59.9501 C.3     1  ZINC000331626032    0.0700
      3 H3        -16.7014   -1.7757   59.4739 H       1  ZINC000331626032    0.1100
      4 C4        -15.5018   -1.9790   61.2271 C.2     1  ZINC000331626032    0.5200
      5 O5        -15.1535   -2.7318   62.1120 O.2     1  ZINC000331626032   -0.5000
      6 N6        -15.3726   -0.6469   61.3858 N.am    1  ZINC000331626032   -0.5800
      7 C7        -15.7933    0.2623   60.3170 C.3     1  ZINC000331626032    0.0800
      8 C8        -14.8367   -0.1323   62.5716 C.ar    1  ZINC000331626032    0.1400
      9 C9        -13.5124   -0.3861   62.9042 C.ar    1  ZINC000331626032   -0.1000
     10 C10       -12.9864    0.1233   64.0753 C.ar    1  ZINC000331626032   -0.1100
     11 C11       -13.7769    0.8846   64.9164 C.ar    1  ZINC000331626032   -0.1200
     12 C12       -15.0960    1.1387   64.5882 C.ar    1  ZINC000331626032   -0.1100
     13 C13       -15.6261    0.6379   63.4153 C.ar    1  ZINC000331626032   -0.1200
     14 N14       -14.9872   -2.9111   59.0427 N.3     1  ZINC000331626032   -0.5100
     15 C15       -15.1946   -2.3428   57.7046 C.3     1  ZINC000331626032    0.0500
     16 C16       -14.1213   -2.8736   56.7516 C.3     1  ZINC000331626032   -0.1100
     17 C17       -12.7380   -2.4864   57.2821 C.3     1  ZINC000331626032   -0.1100
     18 C18       -12.5663   -3.0494   58.6956 C.3     1  ZINC000331626032   -0.0400
     19 H19       -12.6163   -4.1378   58.6624 H       1  ZINC000331626032    0.1000
     20 C20       -11.2302   -2.6238   59.2478 C.ar    1  ZINC000331626032    0.2300
     21 C21       -10.1006   -3.3942   59.0220 C.ar    1  ZINC000331626032   -0.2900
     22 C22        -8.8911   -2.9669   59.5478 C.ar    1  ZINC000331626032    0.1900
     23 N23        -8.8515   -1.8437   60.2450 N.ar    1  ZINC000331626032   -0.5700
     24 C24        -9.9505   -1.1301   60.4427 C.ar    1  ZINC000331626032    0.5700
     25 N25        -9.8728    0.0406   61.1768 N.pl3   1  ZINC000331626032   -0.8200
     26 N26       -11.1206   -1.5077   59.9494 N.ar    1  ZINC000331626032   -0.5700
     27 C27       -13.6847   -2.5136   59.5923 C.3     1  ZINC000331626032    0.0700
     28 H28       -16.3058   -4.5233   60.7432 H       1  ZINC000331626032    0.0700
     29 H29       -17.7383   -3.4855   60.9404 H       1  ZINC000331626032    0.0800
     30 H30       -17.3458   -4.1667   59.3434 H       1  ZINC000331626032    0.0700
     31 H31       -16.8401    0.5307   60.4593 H       1  ZINC000331626032    0.0600
     32 H32       -15.1803    1.1633   60.3441 H       1  ZINC000331626032    0.0800
     33 H33       -15.6725   -0.2304   59.3523 H       1  ZINC000331626032    0.0800
     34 H34       -12.8947   -0.9813   62.2481 H       1  ZINC000331626032    0.1200
     35 H35       -11.9567   -0.0738   64.3346 H       1  ZINC000331626032    0.1300
     36 H36       -13.3633    1.2816   65.8317 H       1  ZINC000331626032    0.1300
     37 H37       -15.7111    1.7332   65.2475 H       1  ZINC000331626032    0.1300
     38 H38       -16.6564    0.8367   63.1595 H       1  ZINC000331626032    0.1200
     39 H39       -16.1801   -2.6291   57.3372 H       1  ZINC000331626032    0.0900
     40 H40       -15.1284   -1.2561   57.7573 H       1  ZINC000331626032    0.0300
     41 H41       -14.1958   -3.9591   56.6878 H       1  ZINC000331626032    0.0800
     42 H42       -14.2662   -2.4395   55.7623 H       1  ZINC000331626032    0.0700
     43 H43       -11.9689   -2.8995   56.6295 H       1  ZINC000331626032    0.0700
     44 H44       -12.6492   -1.4003   57.3093 H       1  ZINC000331626032    0.0700
     45 H45       -10.1612   -4.3078   58.4492 H       1  ZINC000331626032    0.1400
     46 H46        -7.9922   -3.5444   59.3903 H       1  ZINC000331626032    0.1700
     47 H47        -9.0210    0.3300   61.5396 H       1  ZINC000331626032    0.4100
     48 H48       -10.6701    0.5718   61.3285 H       1  ZINC000331626032    0.4100
     49 H49       -13.6256   -1.4261   59.6361 H       1  ZINC000331626032    0.0400
     50 H50       -13.5736   -2.9239   60.5960 H       1  ZINC000331626032    0.0800
@<TRIPOS>BOND
     1     1     2    1
     2     1    28    1
     3     1    29    1
     4     1    30    1
     5     2     3    1
     6     2     4    1
     7     2    14    1
     8     4     5    2
     9     4     6   am
    10     6     7    1
    11     6     8    1
    12     7    31    1
    13     7    32    1
    14     7    33    1
    15     8    13   ar
    16     8     9   ar
    17     9    10   ar
    18     9    34    1
    19    10    11   ar
    20    10    35    1
    21    11    12   ar
    22    11    36    1
    23    12    13   ar
    24    12    37    1
    25    13    38    1
    26    14    27    1
    27    14    15    1
    28    15    16    1
    29    15    39    1
    30    15    40    1
    31    16    17    1
    32    16    41    1
    33    16    42    1
    34    17    18    1
    35    17    43    1
    36    17    44    1
    37    18    19    1
    38    18    20    1
    39    18    27    1
    40    20    26   ar
    41    20    21   ar
    42    21    22   ar
    43    21    45    1
    44    22    23   ar
    45    22    46    1
    46    23    24   ar
    47    24    25    1
    48    24    26   ar
    49    25    47    1
    50    25    48    1
    51    27    49    1
    52    27    50    1
@<TRIPOS>SUBSTRUCTURE
     1 ZINC000331626032        1 TEMP              0 ****  ****    0 ROOT


##########                                Name:    ZINC000826324849
##########                DOCK_Rotatable_Bonds:                   4
##########                         Heavy_Atoms:                  27
##########                    Molecular_Weight:             395.374
##########                DOCK_Rotatable_Bonds:                   4
##########                       Formal_Charge:           0.0400001
##########                     HBond_Acceptors:                  13
##########                        HBond_Donors:                   1
##########                         Heavy_Atoms:                  27
##########                          Grid_Score:          -24.866180
##########                     Grid_vdw_energy:          -21.926975
##########                      Grid_es_energy:           -2.939205
##########           Internal_energy_repulsive:          104.147522

@<TRIPOS>MOLECULE
ZINC000826324849
 41 44 1 0 0
SMALL
USER_CHARGES


@<TRIPOS>ATOM
      1 C1        -13.5849    0.1001   53.7116 C.3     1  ZINC000826324849   -0.0600
      2 C2        -12.1035    0.3508   53.8292 C.2     1  ZINC000826324849    0.2000
      3 N3        -11.5271    1.3389   54.4705 N.2     1  ZINC000826324849   -0.4600
      4 C4        -10.2051    1.1563   54.3038 C.2     1  ZINC000826324849    0.1600
      5 C5         -9.1078    2.0314   54.8525 C.3     1  ZINC000826324849    0.2200
      6 H6         -8.2099    1.9186   54.2447 H       1  ZINC000826324849    0.1300
      7 C7         -9.5599    3.4960   54.8388 C.3     1  ZINC000826324849    0.0600
      8 O8         -8.5940    4.2933   55.5282 O.3     1  ZINC000826324849   -0.3600
      9 C9         -8.4405    3.9617   56.9103 C.3     1  ZINC000826324849    0.0400
     10 C10        -7.9310    2.5209   57.0300 C.3     1  ZINC000826324849    0.0800
     11 N11        -8.8164    1.6477   56.2428 N.am    1  ZINC000826324849   -1.0100
     12 S12        -9.4667    0.2752   56.9029 S.o2    1  ZINC000826324849    2.7100
     13 O13       -10.3769   -0.2401   55.9411 O.2     1  ZINC000826324849   -0.9300
     14 O14        -8.3775   -0.4751   57.4224 O.2     1  ZINC000826324849   -0.9300
     15 C15       -10.4352    0.7712   58.2888 C.ar    1  ZINC000826324849   -0.5800
     16 C16       -11.0027    2.0288   58.3206 C.ar    1  ZINC000826324849   -0.0400
     17 C17       -11.7635    2.4209   59.4076 C.ar    1  ZINC000826324849   -0.0800
     18 C18       -11.9601    1.5568   60.4687 C.ar    1  ZINC000826324849   -0.1100
     19 C19       -11.3963    0.2941   60.4481 C.ar    1  ZINC000826324849    0.1300
     20 F20       -11.5887   -0.5504   61.4849 F       1  ZINC000826324849   -0.1100
     21 C21       -10.6336   -0.1074   59.3513 C.ar    1  ZINC000826324849    0.0500
     22 C22       -10.0259   -1.4614   59.3220 C.2     1  ZINC000826324849    0.1800
     23 N23        -8.9416   -1.8517   59.9620 N.2     1  ZINC000826324849   -0.2600
     24 N24        -8.7429   -3.0935   59.6802 N.pl3   1  ZINC000826324849   -0.2200
     25 N25        -9.6667   -3.5022   58.8823 N.2     1  ZINC000826324849   -0.0200
     26 N26       -10.4762   -2.5267   58.6442 N.2     1  ZINC000826324849   -0.2600
     27 N27       -10.0478    0.0864   53.5832 N.2     1  ZINC000826324849   -0.3800
     28 O28       -11.1260   -0.3947   53.3049 O.3     1  ZINC000826324849    0.0900
     29 H29       -13.7553   -0.8003   53.1214 H       1  ZINC000826324849    0.1000
     30 H30       -14.0113   -0.0312   54.7061 H       1  ZINC000826324849    0.1100
     31 H31       -14.0595    0.9505   53.2221 H       1  ZINC000826324849    0.1100
     32 H32        -9.6476    3.8404   53.8083 H       1  ZINC000826324849    0.1200
     33 H33       -10.5259    3.5836   55.3360 H       1  ZINC000826324849    0.0600
     34 H34        -7.7228    4.6410   57.3702 H       1  ZINC000826324849    0.1200
     35 H35        -9.4025    4.0508   57.4151 H       1  ZINC000826324849    0.0600
     36 H36        -6.9144    2.4575   56.6421 H       1  ZINC000826324849    0.0900
     37 H37        -7.9456    2.2120   58.0753 H       1  ZINC000826324849    0.1100
     38 H38       -10.8523    2.7087   57.4950 H       1  ZINC000826324849    0.1400
     39 H39       -12.2055    3.4061   59.4274 H       1  ZINC000826324849    0.1500
     40 H40       -12.5543    1.8684   61.3150 H       1  ZINC000826324849    0.1500
     41 H41        -8.0117   -3.6351   60.0162 H       1  ZINC000826324849    0.4800
@<TRIPOS>BOND
     1     1     2    1
     2     1    29    1
     3     1    30    1
     4     1    31    1
     5     2    28    1
     6     2     3    2
     7     3     4    1
     8     4     5    1
     9     4    27    2
    10     5     6    1
    11     5    11    1
    12     5     7    1
    13     7     8    1
    14     7    32    1
    15     7    33    1
    16     8     9    1
    17     9    10    1
    18     9    34    1
    19     9    35    1
    20    10    11    1
    21    10    36    1
    22    10    37    1
    23    11    12   am
    24    12    13    2
    25    12    14    2
    26    12    15    1
    27    15    21   ar
    28    15    16   ar
    29    16    17   ar
    30    16    38    1
    31    17    18   ar
    32    17    39    1
    33    18    19   ar
    34    18    40    1
    35    19    20    1
    36    19    21   ar
    37    21    22    1
    38    22    26    1
    39    22    23    2
    40    23    24    1
    41    24    25    1
    42    24    41    1
    43    25    26    2
    44    27    28    1
@<TRIPOS>SUBSTRUCTURE
     1 ZINC000826324849        1 TEMP              0 ****  ****    0 ROOT


##########                                Name:    ZINC000653668607
##########                DOCK_Rotatable_Bonds:                   5
##########                         Heavy_Atoms:                  28
##########                    Molecular_Weight:             379.459
##########                DOCK_Rotatable_Bonds:                   5
##########                       Formal_Charge:          0.00999918
##########                     HBond_Acceptors:                   6
##########                        HBond_Donors:                   2
##########                         Heavy_Atoms:                  28
##########                          Grid_Score:          -24.828018
##########                     Grid_vdw_energy:          -23.628777
##########                      Grid_es_energy:           -1.199241
##########           Internal_energy_repulsive:            8.620316

@<TRIPOS>MOLECULE
ZINC000653668607
 53 56 1 0 0
SMALL
USER_CHARGES


@<TRIPOS>ATOM
      1 C1        -15.6009   -2.8405   62.1163 C.3     1  ZINC000653668607    0.0300
      2 O2        -16.1894   -1.7585   62.8409 O.3     1  ZINC000653668607   -0.3200
      3 C3        -15.3832   -0.7067   63.1418 C.ar    1  ZINC000653668607    0.1300
      4 C4        -15.1234   -0.3838   64.4656 C.ar    1  ZINC000653668607   -0.2000
      5 C5        -14.3017    0.6836   64.7601 C.ar    1  ZINC000653668607   -0.0800
      6 C6        -13.7314    1.4391   63.7434 C.ar    1  ZINC000653668607   -0.1000
      7 C7        -12.8326    2.5814   64.1397 C.3     1  ZINC000653668607   -0.0800
      8 C8        -12.6450    3.5475   62.9718 C.3     1  ZINC000653668607   -0.1200
      9 C9        -12.2224    2.7398   61.7389 C.3     1  ZINC000653668607   -0.1100
     10 C10       -13.4156    1.9058   61.2771 C.3     1  ZINC000653668607   -0.0600
     11 H11       -14.1814    2.5675   60.8723 H       1  ZINC000653668607    0.1000
     12 C12       -12.9670    0.9492   60.2026 C.2     1  ZINC000653668607    0.5200
     13 O13       -13.5030    0.9645   59.1146 O.2     1  ZINC000653668607   -0.5100
     14 N14       -11.9704    0.0764   60.4505 N.am    1  ZINC000653668607   -0.6700
     15 C15       -11.5539   -0.8118   59.4529 C.ar    1  ZINC000653668607    0.1500
     16 C16       -10.2781   -0.7038   58.9142 C.ar    1  ZINC000653668607   -0.1100
     17 C17        -9.8661   -1.5806   57.9288 C.ar    1  ZINC000653668607   -0.0900
     18 C18       -10.7209   -2.5670   57.4764 C.ar    1  ZINC000653668607   -0.1200
     19 C19       -11.9984   -2.6800   58.0108 C.ar    1  ZINC000653668607    0.1700
     20 N20       -12.8639   -3.6792   57.5517 N.am    1  ZINC000653668607   -0.5800
     21 C21       -14.0773   -3.2991   56.8264 C.3     1  ZINC000653668607    0.1100
     22 C22       -14.4485   -4.4172   55.8465 C.3     1  ZINC000653668607   -0.1500
     23 C23       -14.5818   -5.7277   56.6293 C.3     1  ZINC000653668607    0.1100
     24 N24       -13.3410   -5.9761   57.3652 N.am    1  ZINC000653668607   -0.7400
     25 C25       -12.5620   -4.9660   57.7802 C.2     1  ZINC000653668607    0.7100
     26 O26       -11.5470   -5.2269   58.3968 O.2     1  ZINC000653668607   -0.5800
     27 C27       -12.4129   -1.8052   59.0046 C.ar    1  ZINC000653668607   -0.1300
     28 C28       -13.9925    1.1239   62.4281 C.ar    1  ZINC000653668607   -0.0300
     29 C29       -14.8125    0.0449   62.1286 C.ar    1  ZINC000653668607   -0.1500
     30 H30       -15.2260   -2.4759   61.1599 H       1  ZINC000653668607    0.0600
     31 H31       -14.7768   -3.2591   62.6940 H       1  ZINC000653668607    0.0600
     32 H32       -16.3512   -3.6118   61.9422 H       1  ZINC000653668607    0.1000
     33 H33       -15.5630   -0.9656   65.2621 H       1  ZINC000653668607    0.1300
     34 H34       -14.0998    0.9348   65.7909 H       1  ZINC000653668607    0.1300
     35 H35       -13.2784    3.1149   64.9793 H       1  ZINC000653668607    0.0800
     36 H36       -11.8616    2.1873   64.4398 H       1  ZINC000653668607    0.0800
     37 H37       -13.5830    4.0641   62.7683 H       1  ZINC000653668607    0.0700
     38 H38       -11.8708    4.2744   63.2175 H       1  ZINC000653668607    0.0800
     39 H39       -11.9184    3.4186   60.9420 H       1  ZINC000653668607    0.0700
     40 H40       -11.3927    2.0818   61.9978 H       1  ZINC000653668607    0.0800
     41 H41       -11.5417    0.0642   61.3206 H       1  ZINC000653668607    0.4100
     42 H42        -9.6077    0.0666   59.2655 H       1  ZINC000653668607    0.1400
     43 H43        -8.8738   -1.4944   57.5113 H       1  ZINC000653668607    0.1300
     44 H44       -10.3960   -3.2508   56.7062 H       1  ZINC000653668607    0.1200
     45 H45       -14.8927   -3.1494   57.5341 H       1  ZINC000653668607    0.0700
     46 H46       -13.8981   -2.3761   56.2751 H       1  ZINC000653668607    0.0900
     47 H47       -15.3967   -4.1810   55.3637 H       1  ZINC000653668607    0.1000
     48 H48       -13.6666   -4.5185   55.0936 H       1  ZINC000653668607    0.0800
     49 H49       -15.4122   -5.6499   57.3311 H       1  ZINC000653668607    0.0700
     50 H50       -14.7650   -6.5490   55.9364 H       1  ZINC000653668607    0.0900
     51 H51       -13.0747   -6.8897   57.5532 H       1  ZINC000653668607    0.4200
     52 H52       -13.4053   -1.8913   59.4218 H       1  ZINC000653668607    0.1300
     53 H53       -15.0109   -0.2073   61.0973 H       1  ZINC000653668607    0.1200
@<TRIPOS>BOND
     1     1     2    1
     2     1    30    1
     3     1    31    1
     4     1    32    1
     5     2     3    1
     6     3    29   ar
     7     3     4   ar
     8     4     5   ar
     9     4    33    1
    10     5     6   ar
    11     5    34    1
    12     6    28   ar
    13     6     7    1
    14     7     8    1
    15     7    35    1
    16     7    36    1
    17     8     9    1
    18     8    37    1
    19     8    38    1
    20     9    10    1
    21     9    39    1
    22     9    40    1
    23    10    11    1
    24    10    12    1
    25    10    28    1
    26    12    13    2
    27    12    14   am
    28    14    15    1
    29    14    41    1
    30    15    27   ar
    31    15    16   ar
    32    16    17   ar
    33    16    42    1
    34    17    18   ar
    35    17    43    1
    36    18    19   ar
    37    18    44    1
    38    19    20    1
    39    19    27   ar
    40    20    25   am
    41    20    21    1
    42    21    22    1
    43    21    45    1
    44    21    46    1
    45    22    23    1
    46    22    47    1
    47    22    48    1
    48    23    24    1
    49    23    49    1
    50    23    50    1
    51    24    25   am
    52    24    51    1
    53    25    26    2
    54    27    52    1
    55    28    29   ar
    56    29    53    1
@<TRIPOS>SUBSTRUCTURE
     1 ZINC000653668607        1 TEMP              0 ****  ****    0 ROOT


##########                                Name:    ZINC000345028113
##########                DOCK_Rotatable_Bonds:                   5
##########                         Heavy_Atoms:                  21
##########                    Molecular_Weight:             331.838
##########                DOCK_Rotatable_Bonds:                   5
##########                       Formal_Charge:         4.47035e-07
##########                     HBond_Acceptors:                   6
##########                        HBond_Donors:                   0
##########                         Heavy_Atoms:                  21
##########                          Grid_Score:          -24.804482
##########                     Grid_vdw_energy:          -23.514767
##########                      Grid_es_energy:           -1.289715
##########           Internal_energy_repulsive:           19.033836

@<TRIPOS>MOLECULE
ZINC000345028113
 40 41 1 0 0
SMALL
USER_CHARGES


@<TRIPOS>ATOM
      1 C1        -13.0660   -3.7165   55.5014 C.3     1  ZINC000345028113   -0.1700
      2 C2        -13.0543   -3.6805   57.0310 C.3     1  ZINC000345028113    0.1400
      3 H3        -13.0196   -4.6988   57.4181 H       1  ZINC000345028113    0.1100
      4 C4        -14.3236   -2.9854   57.5351 C.3     1  ZINC000345028113   -0.0700
      5 H5        -14.3356   -2.9924   58.6250 H       1  ZINC000345028113    0.0900
      6 C6        -15.5561   -3.7200   57.0039 C.3     1  ZINC000345028113   -0.1400
      7 S7        -14.3283   -1.2692   56.9370 S.3     1  ZINC000345028113   -0.2400
      8 C8        -12.7263   -0.6481   57.5292 C.3     1  ZINC000345028113   -0.1100
      9 C9        -11.6188   -1.5798   57.0256 C.3     1  ZINC000345028113    0.1000
     10 N10       -11.8774   -2.9427   57.4927 N.am    1  ZINC000345028113   -0.6100
     11 C11       -11.0226   -3.5246   58.3571 C.2     1  ZINC000345028113    0.5200
     12 O12       -11.2316   -4.6530   58.7494 O.2     1  ZINC000345028113   -0.5300
     13 C13        -9.8074   -2.7731   58.8362 C.3     1  ZINC000345028113   -0.1400
     14 C14       -10.2361   -1.6884   59.8264 C.3     1  ZINC000345028113    0.0700
     15 O15       -10.4887   -2.2808   61.1021 O.3     1  ZINC000345028113   -0.3000
     16 C16       -10.4328   -1.4609   62.1853 C.ar    1  ZINC000345028113    0.1300
     17 C17        -9.2196   -1.2209   62.8120 C.ar    1  ZINC000345028113   -0.1700
     18 C18        -9.1639   -0.3870   63.9127 C.ar    1  ZINC000345028113   -0.1100
     19 C19       -10.3185    0.2088   64.3901 C.ar    1  ZINC000345028113    0.0800
     20 F20       -10.2620    1.0241   65.4659 F       1  ZINC000345028113   -0.1300
     21 C21       -11.5314   -0.0294   63.7657 C.ar    1  ZINC000345028113   -0.1100
     22 C22       -11.5895   -0.8587   62.6614 C.ar    1  ZINC000345028113   -0.0400
     23 Cl23      -13.1099   -1.1575   61.8786 Cl      1  ZINC000345028113   -0.0400
     24 H24       -12.1633   -4.2110   55.1428 H       1  ZINC000345028113    0.0600
     25 H25       -13.9423   -4.2659   55.1577 H       1  ZINC000345028113    0.0800
     26 H26       -13.1007   -2.6982   55.1143 H       1  ZINC000345028113    0.0800
     27 H27       -15.5438   -4.7516   57.3558 H       1  ZINC000345028113    0.0800
     28 H28       -16.4577   -3.2242   57.3637 H       1  ZINC000345028113    0.0700
     29 H29       -15.5447   -3.7077   55.9141 H       1  ZINC000345028113    0.0700
     30 H30       -12.5599    0.3582   57.1448 H       1  ZINC000345028113    0.1200
     31 H31       -12.7215   -0.6306   58.6190 H       1  ZINC000345028113    0.0900
     32 H32       -11.6005   -1.5666   55.9359 H       1  ZINC000345028113    0.0900
     33 H33       -10.6565   -1.2408   57.4092 H       1  ZINC000345028113    0.1000
     34 H34        -9.1234   -3.4645   59.3285 H       1  ZINC000345028113    0.1100
     35 H35        -9.3070   -2.3111   57.9852 H       1  ZINC000345028113    0.1100
     36 H36        -9.4417   -0.9480   59.9205 H       1  ZINC000345028113    0.0800
     37 H37       -11.1431   -1.2041   59.4646 H       1  ZINC000345028113    0.0800
     38 H38        -8.3184   -1.6857   62.4404 H       1  ZINC000345028113    0.1500
     39 H39        -8.2189   -0.2004   64.4010 H       1  ZINC000345028113    0.1500
     40 H40       -12.4316    0.4360   64.1394 H       1  ZINC000345028113    0.1500
@<TRIPOS>BOND
     1     1     2    1
     2     1    24    1
     3     1    25    1
     4     1    26    1
     5     2     3    1
     6     2    10    1
     7     2     4    1
     8     4     5    1
     9     4     6    1
    10     4     7    1
    11     6    27    1
    12     6    28    1
    13     6    29    1
    14     7     8    1
    15     8     9    1
    16     8    30    1
    17     8    31    1
    18     9    10    1
    19     9    32    1
    20     9    33    1
    21    10    11   am
    22    11    12    2
    23    11    13    1
    24    13    14    1
    25    13    34    1
    26    13    35    1
    27    14    15    1
    28    14    36    1
    29    14    37    1
    30    15    16    1
    31    16    22   ar
    32    16    17   ar
    33    17    18   ar
    34    17    38    1
    35    18    19   ar
    36    18    39    1
    37    19    20    1
    38    19    21   ar
    39    21    22   ar
    40    21    40    1
    41    22    23    1
@<TRIPOS>SUBSTRUCTURE
     1 ZINC000345028113        1 TEMP              0 ****  ****    0 ROOT


##########                                Name:    ZINC001757264545
##########                DOCK_Rotatable_Bonds:                  11
##########                         Heavy_Atoms:                  25
##########                    Molecular_Weight:             344.497
##########                DOCK_Rotatable_Bonds:                  11
##########                       Formal_Charge:          0.00999946
##########                     HBond_Acceptors:                   4
##########                        HBond_Donors:                   2
##########                         Heavy_Atoms:                  25
##########                          Grid_Score:          -24.798817
##########                     Grid_vdw_energy:          -25.176502
##########                      Grid_es_energy:            0.377686
##########           Internal_energy_repulsive:           11.485370

@<TRIPOS>MOLECULE
ZINC001757264545
 57 57 1 0 0
SMALL
USER_CHARGES


@<TRIPOS>ATOM
      1 C1        -15.4372    2.1425   65.4053 C.1     1  ZINC001757264545   -0.2100
      2 C2        -15.8087    2.2732   64.2993 C.1     1  ZINC001757264545   -0.1900
      3 C3        -16.2745    2.4370   62.9126 C.3     1  ZINC001757264545   -0.0100
      4 C4        -16.8249    1.1050   62.3989 C.3     1  ZINC001757264545   -0.1200
      5 C5        -15.7217    0.0459   62.4440 C.3     1  ZINC001757264545   -0.1200
      6 C6        -16.2719   -1.2859   61.9298 C.3     1  ZINC001757264545   -0.1000
      7 C7        -15.1689   -2.3452   61.9756 C.3     1  ZINC001757264545   -0.1400
      8 C8        -14.0177   -1.9098   61.1059 C.2     1  ZINC001757264545    0.5100
      9 O9        -14.2222   -1.2182   60.1308 O.2     1  ZINC001757264545   -0.5400
     10 N10       -12.7610   -2.2890   61.4117 N.am    1  ZINC001757264545   -0.7300
     11 C11       -11.6423   -1.8672   60.5653 C.3     1  ZINC001757264545    0.1400
     12 H12       -11.8798   -0.9112   60.0987 H       1  ZINC001757264545    0.1000
     13 C13       -11.3994   -2.9180   59.4800 C.3     1  ZINC001757264545   -0.1300
     14 C14       -10.2308   -2.4775   58.5960 C.3     1  ZINC001757264545   -0.1200
     15 C15        -8.9716   -2.3280   59.4522 C.3     1  ZINC001757264545   -0.1200
     16 C16        -9.2145   -1.2773   60.5374 C.3     1  ZINC001757264545   -0.1300
     17 C17       -10.3830   -1.7179   61.4214 C.3     1  ZINC001757264545    0.1400
     18 H18       -10.1454   -2.6738   61.8880 H       1  ZINC001757264545    0.1000
     19 N19       -10.6156   -0.7117   62.4606 N.am    1  ZINC001757264545   -0.7200
     20 C20        -9.9360   -0.7739   63.6229 C.2     1  ZINC001757264545    0.6400
     21 O21        -9.1288   -1.6643   63.8084 O.2     1  ZINC001757264545   -0.5200
     22 C22       -10.1646    0.2087   64.6393 C.1     1  ZINC001757264545   -0.2300
     23 C23       -10.3520    1.0141   65.4726 C.1     1  ZINC001757264545   -0.0500
     24 C24       -10.5870    2.0240   66.5175 C.3     1  ZINC001757264545    0.0300
     25 C25       -11.0719    1.3338   67.7939 C.3     1  ZINC001757264545   -0.1400
     26 C26        -9.2840    2.7722   66.8057 C.3     1  ZINC001757264545   -0.1400
     27 C27       -11.6494    3.0155   66.0387 C.3     1  ZINC001757264545   -0.1400
     28 H28       -15.1050    2.0257   66.3945 H       1  ZINC001757264545    0.2200
     29 H29       -15.4415    2.7523   62.2844 H       1  ZINC001757264545    0.0900
     30 H30       -17.0603    3.1917   62.8801 H       1  ZINC001757264545    0.0900
     31 H31       -17.1702    1.2263   61.3722 H       1  ZINC001757264545    0.0700
     32 H32       -17.6575    0.7893   63.0275 H       1  ZINC001757264545    0.0700
     33 H33       -15.3766   -0.0758   63.4708 H       1  ZINC001757264545    0.0700
     34 H34       -14.8888    0.3618   61.8159 H       1  ZINC001757264545    0.0700
     35 H35       -16.6165   -1.1644   60.9028 H       1  ZINC001757264545    0.0700
     36 H36       -17.1051   -1.6016   62.5576 H       1  ZINC001757264545    0.0700
     37 H37       -15.5612   -3.2944   61.6106 H       1  ZINC001757264545    0.0900
     38 H38       -14.8233   -2.4657   63.0023 H       1  ZINC001757264545    0.0900
     39 H39       -12.5975   -2.8412   62.1923 H       1  ZINC001757264545    0.4000
     40 H40       -11.1617   -3.8740   59.9466 H       1  ZINC001757264545    0.0700
     41 H41       -12.2964   -3.0244   58.8700 H       1  ZINC001757264545    0.0800
     42 H42       -10.0578   -3.2261   57.8228 H       1  ZINC001757264545    0.0700
     43 H43       -10.4684   -1.5215   58.1294 H       1  ZINC001757264545    0.0700
     44 H44        -8.1392   -2.0143   58.8223 H       1  ZINC001757264545    0.0700
     45 H45        -8.7340   -3.2841   59.9187 H       1  ZINC001757264545    0.0700
     46 H46        -9.4522   -0.3213   60.0709 H       1  ZINC001757264545    0.0700
     47 H47        -8.3174   -1.1709   61.1474 H       1  ZINC001757264545    0.0800
     48 H48       -11.2587   -0.0009   62.3122 H       1  ZINC001757264545    0.4000
     49 H49       -10.3150    0.6275   68.1350 H       1  ZINC001757264545    0.0600
     50 H50       -11.2459    2.0816   68.5676 H       1  ZINC001757264545    0.0700
     51 H51       -12.0002    0.8007   67.5885 H       1  ZINC001757264545    0.0600
     52 H52        -8.9385    3.2639   65.8964 H       1  ZINC001757264545    0.0600
     53 H53        -9.4579    3.5201   67.5794 H       1  ZINC001757264545    0.0700
     54 H54        -8.5272    2.0658   67.1468 H       1  ZINC001757264545    0.0600
     55 H55       -12.5777    2.4824   65.8333 H       1  ZINC001757264545    0.0600
     56 H56       -11.8233    3.7634   66.8124 H       1  ZINC001757264545    0.0700
     57 H57       -11.3039    3.5071   65.1292 H       1  ZINC001757264545    0.0600
@<TRIPOS>BOND
     1     1     2    3
     2     1    28    1
     3     2     3    1
     4     3     4    1
     5     3    29    1
     6     3    30    1
     7     4     5    1
     8     4    31    1
     9     4    32    1
    10     5     6    1
    11     5    33    1
    12     5    34    1
    13     6     7    1
    14     6    35    1
    15     6    36    1
    16     7     8    1
    17     7    37    1
    18     7    38    1
    19     8     9    2
    20     8    10   am
    21    10    11    1
    22    10    39    1
    23    11    12    1
    24    11    17    1
    25    11    13    1
    26    13    14    1
    27    13    40    1
    28    13    41    1
    29    14    15    1
    30    14    42    1
    31    14    43    1
    32    15    16    1
    33    15    44    1
    34    15    45    1
    35    16    17    1
    36    16    46    1
    37    16    47    1
    38    17    18    1
    39    17    19    1
    40    19    20   am
    41    19    48    1
    42    20    21    2
    43    20    22    1
    44    22    23    3
    45    23    24    1
    46    24    25    1
    47    24    26    1
    48    24    27    1
    49    25    49    1
    50    25    50    1
    51    25    51    1
    52    26    52    1
    53    26    53    1
    54    26    54    1
    55    27    55    1
    56    27    56    1
    57    27    57    1
@<TRIPOS>SUBSTRUCTURE
     1 ZINC001757264545        1 TEMP              0 ****  ****    0 ROOT


##########                                Name:    ZINC000956479608
##########                DOCK_Rotatable_Bonds:                   5
##########                         Heavy_Atoms:                  25
##########                    Molecular_Weight:             345.442
##########                DOCK_Rotatable_Bonds:                   5
##########                       Formal_Charge:          -0.0100001
##########                     HBond_Acceptors:                   6
##########                        HBond_Donors:                   1
##########                         Heavy_Atoms:                  25
##########                          Grid_Score:          -24.777802
##########                     Grid_vdw_energy:          -24.458853
##########                      Grid_es_energy:           -0.318949
##########           Internal_energy_repulsive:           32.204952

@<TRIPOS>MOLECULE
ZINC000956479608
 52 55 1 0 0
SMALL
USER_CHARGES


@<TRIPOS>ATOM
      1 C1        -10.4829   -0.2780   54.5462 C.3     1  ZINC000956479608   -0.0900
      2 C2         -9.7629    0.6350   55.5050 C.2     1  ZINC000956479608   -0.1100
      3 C3         -9.5469    0.4517   56.8435 C.2     1  ZINC000956479608   -0.1000
      4 C4         -9.9760   -0.6982   57.6616 C.2     1  ZINC000956479608    0.6100
      5 O5        -10.6805   -1.5614   57.1749 O.2     1  ZINC000956479608   -0.5000
      6 N6         -9.5871   -0.7922   58.9486 N.am    1  ZINC000956479608   -0.7100
      7 C7        -10.0147   -1.9334   59.7616 C.3     1  ZINC000956479608    0.1800
      8 C8         -9.4997   -3.2293   59.1321 C.3     1  ZINC000956479608   -0.1700
      9 C9         -9.4469   -1.7932   61.1759 C.3     1  ZINC000956479608   -0.1500
     10 C10        -9.9367   -0.4782   61.7904 C.3     1  ZINC000956479608    0.1100
     11 N11       -11.4040   -0.4424   61.7231 N.am    1  ZINC000956479608   -0.6100
     12 C12       -12.1370   -0.2166   62.8313 C.2     1  ZINC000956479608    0.5500
     13 O13       -11.5860   -0.0392   63.8971 O.2     1  ZINC000956479608   -0.5400
     14 C14       -13.6412   -0.1847   62.7463 C.3     1  ZINC000956479608   -0.1900
     15 H15       -14.1092   -1.0845   62.3471 H       1  ZINC000956479608    0.1200
     16 C16       -14.3917    0.5775   63.8305 C.3     1  ZINC000956479608   -0.1100
     17 H17       -13.7741    1.0603   64.5878 H       1  ZINC000956479608    0.1000
     18 C18       -15.7247    0.0520   64.3402 C.3     1  ZINC000956479608   -0.0900
     19 C19       -16.6532   -0.2769   63.1712 C.3     1  ZINC000956479608   -0.1200
     20 C20       -16.7848    0.9680   62.2864 C.3     1  ZINC000956479608   -0.1200
     21 C21       -15.4912    1.1383   61.4896 C.3     1  ZINC000956479608   -0.0900
     22 C22       -14.3062    1.1632   62.4272 C.3     1  ZINC000956479608   -0.1100
     23 H23       -13.6387    2.0174   62.3141 H       1  ZINC000956479608    0.1100
     24 C24       -12.0569   -0.6569   60.4245 C.3     1  ZINC000956479608    0.1000
     25 C25       -11.5434   -1.9698   59.8252 C.3     1  ZINC000956479608   -0.1400
     26 O26        -8.8630    1.5330   57.2630 O.3     1  ZINC000956479608    0.1200
     27 N27        -8.6581    2.3061   56.3565 N.2     1  ZINC000956479608   -0.3400
     28 C28        -9.1484    1.8769   55.2301 C.2     1  ZINC000956479608   -0.0100
     29 H29        -9.7724   -0.9805   54.1105 H       1  ZINC000956479608    0.0800
     30 H30       -11.2569   -0.8287   55.0807 H       1  ZINC000956479608    0.0900
     31 H31       -10.9401    0.3147   53.7539 H       1  ZINC000956479608    0.0800
     32 H32        -9.0241   -0.1042   59.3366 H       1  ZINC000956479608    0.4100
     33 H33        -8.4110   -3.2033   59.0862 H       1  ZINC000956479608    0.0800
     34 H34        -9.8178   -4.0784   59.7368 H       1  ZINC000956479608    0.0700
     35 H35        -9.9034   -3.3292   58.1245 H       1  ZINC000956479608    0.0600
     36 H36        -9.7850   -2.6292   61.7882 H       1  ZINC000956479608    0.0800
     37 H37        -8.3578   -1.7908   61.1320 H       1  ZINC000956479608    0.1000
     38 H38        -9.6172   -0.4198   62.8309 H       1  ZINC000956479608    0.0900
     39 H39        -9.5246    0.3621   61.2318 H       1  ZINC000956479608    0.0600
     40 H40       -15.5545   -0.8494   64.9289 H       1  ZINC000956479608    0.0700
     41 H41       -16.1928    0.8089   64.9695 H       1  ZINC000956479608    0.0700
     42 H42       -16.2325   -1.0967   62.5891 H       1  ZINC000956479608    0.0600
     43 H43       -17.6343   -0.5607   63.5518 H       1  ZINC000956479608    0.0700
     44 H44       -17.6231    0.8429   61.6010 H       1  ZINC000956479608    0.0700
     45 H45       -16.9478    1.8459   62.9116 H       1  ZINC000956479608    0.0700
     46 H46       -15.3818    0.3046   60.7960 H       1  ZINC000956479608    0.0700
     47 H47       -15.5339    2.0707   60.9265 H       1  ZINC000956479608    0.0700
     48 H48       -13.1364   -0.7163   60.5637 H       1  ZINC000956479608    0.0900
     49 H49       -11.8178    0.1689   59.7544 H       1  ZINC000956479608    0.0700
     50 H50       -11.9464   -2.0932   58.8200 H       1  ZINC000956479608    0.0900
     51 H51       -11.8618   -2.8042   60.4503 H       1  ZINC000956479608    0.0900
     52 H52        -9.1017    2.3764   54.2738 H       1  ZINC000956479608    0.2000
@<TRIPOS>BOND
     1     1     2    1
     2     1    29    1
     3     1    30    1
     4     1    31    1
     5     2    28    1
     6     2     3    2
     7     3     4    1
     8     3    26    1
     9     4     5    2
    10     4     6   am
    11     6     7    1
    12     6    32    1
    13     7    25    1
    14     7     8    1
    15     7     9    1
    16     8    33    1
    17     8    34    1
    18     8    35    1
    19     9    10    1
    20     9    36    1
    21     9    37    1
    22    10    11    1
    23    10    38    1
    24    10    39    1
    25    11    12   am
    26    11    24    1
    27    12    13    2
    28    12    14    1
    29    14    15    1
    30    14    22    1
    31    14    16    1
    32    16    17    1
    33    16    22    1
    34    16    18    1
    35    18    19    1
    36    18    40    1
    37    18    41    1
    38    19    20    1
    39    19    42    1
    40    19    43    1
    41    20    21    1
    42    20    44    1
    43    20    45    1
    44    21    22    1
    45    21    46    1
    46    21    47    1
    47    22    23    1
    48    24    25    1
    49    24    48    1
    50    24    49    1
    51    25    50    1
    52    25    51    1
    53    26    27    1
    54    27    28    2
    55    28    52    1
@<TRIPOS>SUBSTRUCTURE
     1 ZINC000956479608        1 TEMP              0 ****  ****    0 ROOT


##########                                Name:    ZINC000535362552
##########                DOCK_Rotatable_Bonds:                   5
##########                         Heavy_Atoms:                  26
##########                    Molecular_Weight:             416.228
##########                DOCK_Rotatable_Bonds:                   5
##########                       Formal_Charge:         -0.00999981
##########                     HBond_Acceptors:                   6
##########                        HBond_Donors:                   1
##########                         Heavy_Atoms:                  26
##########                          Grid_Score:          -24.720053
##########                     Grid_vdw_energy:          -23.541908
##########                      Grid_es_energy:           -1.178144
##########           Internal_energy_repulsive:          156.757629

@<TRIPOS>MOLECULE
ZINC000535362552
 40 43 1 0 0
SMALL
USER_CHARGES


@<TRIPOS>ATOM
      1 C1        -12.1009    4.6089   65.4763 C.3     1  ZINC000535362552    0.0300
      2 O2        -11.6359    4.3678   66.8305 O.3     1  ZINC000535362552   -0.3400
      3 C3        -10.9002    3.2565   67.0366 C.2     1  ZINC000535362552    0.5500
      4 O4        -10.4831    3.0014   68.1498 O.2     1  ZINC000535362552   -0.4800
      5 C5        -10.6031    2.3548   65.9169 C.2     1  ZINC000535362552   -0.0100
      6 C6        -11.0099    2.5410   64.6336 C.2     1  ZINC000535362552   -0.0900
      7 C7        -10.4865    1.4063   63.8741 C.ar    1  ZINC000535362552   -0.1300
      8 C8        -10.5549    1.0195   62.5337 C.ar    1  ZINC000535362552   -0.0600
      9 C9         -9.9320   -0.1459   62.1281 C.ar    1  ZINC000535362552    0.1200
     10 N10        -9.9950   -0.5412   60.7854 N.am    1  ZINC000535362552   -0.6700
     11 C11       -10.7745   -1.5798   60.4246 C.2     1  ZINC000535362552    0.5200
     12 O12       -11.4215   -2.1722   61.2622 O.2     1  ZINC000535362552   -0.5000
     13 C13       -10.8423   -2.0050   58.9805 C.3     1  ZINC000535362552   -0.1000
     14 H14       -10.6628   -1.1580   58.3182 H       1  ZINC000535362552    0.1300
     15 C15        -9.8439   -3.1516   58.6942 C.3     1  ZINC000535362552    0.0600
     16 O16       -10.5591   -3.9687   57.7520 O.3     1  ZINC000535362552   -0.2900
     17 C17       -11.8972   -3.8221   57.9562 C.ar    1  ZINC000535362552    0.1300
     18 C18       -12.9551   -4.6368   57.5616 C.ar    1  ZINC000535362552   -0.1300
     19 C19       -14.2537   -4.2889   57.8718 C.ar    1  ZINC000535362552   -0.0500
     20 C20       -14.5167   -3.1282   58.5768 C.ar    1  ZINC000535362552   -0.1200
     21 Br21      -16.2992   -2.6544   58.9940 Br      1  ZINC000535362552   -0.0400
     22 C22       -13.4696   -2.3148   58.9762 C.ar    1  ZINC000535362552   -0.0100
     23 C23       -12.1732   -2.6624   58.6710 C.ar    1  ZINC000535362552   -0.1600
     24 C24        -9.2410   -0.9286   63.0517 C.ar    1  ZINC000535362552   -0.0900
     25 C25        -9.1692   -0.5549   64.3752 C.ar    1  ZINC000535362552   -0.0900
     26 C26        -9.7879    0.6135   64.8042 C.ar    1  ZINC000535362552    0.0700
     27 O27        -9.8797    1.2190   66.0052 O.3     1  ZINC000535362552   -0.1700
     28 H28       -12.7290    3.7782   65.1546 H       1  ZINC000535362552    0.0700
     29 H29       -12.6788    5.5328   65.4497 H       1  ZINC000535362552    0.1100
     30 H30       -11.2443    4.6968   64.8083 H       1  ZINC000535362552    0.0700
     31 H31       -11.6007    3.3607   64.2521 H       1  ZINC000535362552    0.1800
     32 H32       -11.0909    1.6267   61.8193 H       1  ZINC000535362552    0.1400
     33 H33        -9.4776   -0.0673   60.1155 H       1  ZINC000535362552    0.4100
     34 H34        -8.9269   -2.7636   58.2509 H       1  ZINC000535362552    0.1200
     35 H35        -9.6273   -3.7111   59.6043 H       1  ZINC000535362552    0.0900
     36 H36       -12.7585   -5.5448   57.0107 H       1  ZINC000535362552    0.1400
     37 H37       -15.0692   -4.9259   57.5624 H       1  ZINC000535362552    0.1400
     38 H38       -13.6700   -1.4076   59.5268 H       1  ZINC000535362552    0.1400
     39 H39        -8.7573   -1.8376   62.7259 H       1  ZINC000535362552    0.1500
     40 H40        -8.6312   -1.1705   65.0809 H       1  ZINC000535362552    0.1500
@<TRIPOS>BOND
     1     1     2    1
     2     1    28    1
     3     1    29    1
     4     1    30    1
     5     2     3    1
     6     3     4    2
     7     3     5    1
     8     5    27    1
     9     5     6    2
    10     6     7    1
    11     6    31    1
    12     7    26   ar
    13     7     8   ar
    14     8     9   ar
    15     8    32    1
    16     9    10    1
    17     9    24   ar
    18    10    11   am
    19    10    33    1
    20    11    12    2
    21    11    13    1
    22    13    14    1
    23    13    23    1
    24    13    15    1
    25    15    16    1
    26    15    34    1
    27    15    35    1
    28    16    17    1
    29    17    23   ar
    30    17    18   ar
    31    18    19   ar
    32    18    36    1
    33    19    20   ar
    34    19    37    1
    35    20    21    1
    36    20    22   ar
    37    22    23   ar
    38    22    38    1
    39    24    25   ar
    40    24    39    1
    41    25    26   ar
    42    25    40    1
    43    26    27    1
@<TRIPOS>SUBSTRUCTURE
     1 ZINC000535362552        1 TEMP              0 ****  ****    0 ROOT


##########                                Name:    ZINC000928803822
##########                DOCK_Rotatable_Bonds:                   7
##########                         Heavy_Atoms:                  21
##########                    Molecular_Weight:             364.165
##########                DOCK_Rotatable_Bonds:                   7
##########                       Formal_Charge:         -0.00999978
##########                     HBond_Acceptors:                   7
##########                        HBond_Donors:                   1
##########                         Heavy_Atoms:                  21
##########                          Grid_Score:          -24.619453
##########                     Grid_vdw_energy:          -22.907232
##########                      Grid_es_energy:           -1.712221
##########           Internal_energy_repulsive:            7.089291

@<TRIPOS>MOLECULE
ZINC000928803822
 34 34 1 0 0
SMALL
USER_CHARGES


@<TRIPOS>ATOM
      1 C1        -10.6833    1.5795   62.6306 C.3     1  ZINC000928803822    0.0900
      2 N2        -10.4488    0.1587   62.9005 N.pl3   1  ZINC000928803822   -0.6300
      3 C3         -9.6719   -0.2452   64.0749 C.3     1  ZINC000928803822    0.0900
      4 C4        -10.9662   -0.8108   62.0379 C.ar    1  ZINC000928803822    0.2200
      5 C5        -10.1408   -1.4159   61.0978 C.ar    1  ZINC000928803822   -0.1500
      6 C6        -10.6484   -2.3764   60.2414 C.ar    1  ZINC000928803822   -0.0500
      7 Br7        -9.5172   -3.1946   58.9660 Br      1  ZINC000928803822   -0.0400
      8 C8        -11.9784   -2.7399   60.3154 C.ar    1  ZINC000928803822   -0.1200
      9 C9        -12.8153   -2.1376   61.2565 C.ar    1  ZINC000928803822   -0.0800
     10 C10       -14.2399   -2.5250   61.3378 C.2     1  ZINC000928803822    0.5700
     11 O11       -14.7283   -2.8243   62.4100 O.2     1  ZINC000928803822   -0.5100
     12 N12       -14.9972   -2.5464   60.2231 N.am    1  ZINC000928803822   -0.7200
     13 C13       -16.4082   -2.9319   60.3033 C.3     1  ZINC000928803822    0.1100
     14 H14       -16.5828   -3.4809   61.2286 H       1  ZINC000928803822    0.1400
     15 C15       -16.7630   -3.8198   59.1089 C.3     1  ZINC000928803822   -0.0300
     16 C16       -15.7905   -3.5981   58.0265 C.1     1  ZINC000928803822    0.2000
     17 N17       -15.0399   -3.4270   57.1911 N.1     1  ZINC000928803822   -0.4000
     18 C18       -17.2820   -1.6762   60.2826 C.3     1  ZINC000928803822    0.4400
     19 F19       -18.5845   -2.0080   60.6708 F       1  ZINC000928803822   -0.1800
     20 F20       -16.7583   -0.7289   61.1690 F       1  ZINC000928803822   -0.1700
     21 F21       -17.3023   -1.1434   58.9893 F       1  ZINC000928803822   -0.1600
     22 C22       -12.3020   -1.1734   62.1235 C.ar    1  ZINC000928803822   -0.1200
     23 H23        -9.8792    1.9681   62.0056 H       1  ZINC000928803822    0.0600
     24 H24       -11.6354    1.6988   62.1134 H       1  ZINC000928803822    0.0700
     25 H25       -10.7098    2.1286   63.5718 H       1  ZINC000928803822    0.0700
     26 H26       -10.3414   -0.3817   64.9241 H       1  ZINC000928803822    0.0500
     27 H27        -9.1561   -1.1821   63.8647 H       1  ZINC000928803822    0.0700
     28 H28        -8.9401    0.5276   64.3099 H       1  ZINC000928803822    0.0700
     29 H29        -9.0998   -1.1351   61.0353 H       1  ZINC000928803822    0.1400
     30 H30       -12.3713   -3.4900   59.6449 H       1  ZINC000928803822    0.1300
     31 H31       -14.6078   -2.3065   59.3676 H       1  ZINC000928803822    0.4100
     32 H32       -16.7357   -4.8662   59.4132 H       1  ZINC000928803822    0.1400
     33 H33       -17.7635   -3.5705   58.7552 H       1  ZINC000928803822    0.1300
     34 H34       -12.9449   -0.7042   62.8535 H       1  ZINC000928803822    0.1500
@<TRIPOS>BOND
     1     1     2    1
     2     1    23    1
     3     1    24    1
     4     1    25    1
     5     2     3    1
     6     2     4    1
     7     3    26    1
     8     3    27    1
     9     3    28    1
    10     4    22   ar
    11     4     5   ar
    12     5     6   ar
    13     5    29    1
    14     6     7    1
    15     6     8   ar
    16     8     9   ar
    17     8    30    1
    18     9    10    1
    19     9    22   ar
    20    10    11    2
    21    10    12   am
    22    12    13    1
    23    12    31    1
    24    13    14    1
    25    13    15    1
    26    13    18    1
    27    15    16    1
    28    15    32    1
    29    15    33    1
    30    16    17    3
    31    18    19    1
    32    18    20    1
    33    18    21    1
    34    22    34    1
@<TRIPOS>SUBSTRUCTURE
     1 ZINC000928803822        1 TEMP              0 ****  ****    0 ROOT


##########                                Name:    ZINC000504860563
##########                DOCK_Rotatable_Bonds:                   6
##########                         Heavy_Atoms:                  25
##########                    Molecular_Weight:             370.786
##########                DOCK_Rotatable_Bonds:                   6
##########                       Formal_Charge:                0.01
##########                     HBond_Acceptors:                   9
##########                        HBond_Donors:                   0
##########                         Heavy_Atoms:                  25
##########                          Grid_Score:          -24.506554
##########                     Grid_vdw_energy:          -24.771851
##########                      Grid_es_energy:            0.265298
##########           Internal_energy_repulsive:           19.958933

@<TRIPOS>MOLECULE
ZINC000504860563
 42 44 1 0 0
SMALL
USER_CHARGES


@<TRIPOS>ATOM
      1 O1        -10.1249   -2.0223   61.8874 O.2     1  ZINC000504860563   -0.5100
      2 C2        -10.7096   -1.3331   61.0746 C.2     1  ZINC000504860563    0.5700
      3 C3        -11.2996   -0.0422   61.4883 C.ar    1  ZINC000504860563    0.0500
      4 N4        -10.5982    1.0776   61.3524 N.ar    1  ZINC000504860563   -0.4100
      5 C5        -11.0859    2.2451   61.7072 C.ar    1  ZINC000504860563    0.0600
      6 C6        -12.3613    2.3557   62.2416 C.ar    1  ZINC000504860563   -0.1000
      7 C7        -13.1319    1.2183   62.4033 C.ar    1  ZINC000504860563   -0.1700
      8 C8        -12.5955   -0.0073   62.0149 C.ar    1  ZINC000504860563    0.1400
      9 O9        -13.3139   -1.1495   62.1541 O.3     1  ZINC000504860563   -0.2600
     10 C10       -14.5860   -1.0415   62.7961 C.3     1  ZINC000504860563   -0.0100
     11 C11       -15.6208   -0.5257   61.7942 C.3     1  ZINC000504860563    0.2800
     12 F12       -15.8222   -1.4853   60.7962 F       1  ZINC000504860563   -0.1900
     13 F13       -16.8289   -0.2805   62.4559 F       1  ZINC000504860563   -0.1900
     14 N14       -10.8152   -1.7431   59.7950 N.am    1  ZINC000504860563   -0.6000
     15 C15       -10.2393   -3.0262   59.3701 C.3     1  ZINC000504860563    0.0800
     16 C16       -11.3298   -3.8517   58.6801 C.3     1  ZINC000504860563   -0.1500
     17 C17       -11.9429   -3.0308   57.5433 C.3     1  ZINC000504860563    0.1600
     18 N18       -12.9634   -3.8293   56.8599 N.pl3   1  ZINC000504860563   -0.3600
     19 C19       -13.2517   -5.1260   57.1025 C.2     1  ZINC000504860563    0.0700
     20 C20       -14.2508   -5.4901   56.2648 C.2     1  ZINC000504860563   -0.1900
     21 Cl21      -14.9885   -7.0590   56.1753 Cl      1  ZINC000504860563   -0.0400
     22 C22       -14.5842   -4.3778   55.4838 C.2     1  ZINC000504860563    0.0600
     23 N23       -13.8168   -3.3808   55.8434 N.2     1  ZINC000504860563   -0.2800
     24 C24       -12.5846   -1.7644   58.1149 C.3     1  ZINC000504860563   -0.1400
     25 C25       -11.5137   -0.9181   58.7999 C.3     1  ZINC000504860563    0.1200
     26 H26       -10.4839    3.1328   61.5811 H       1  ZINC000504860563    0.1700
     27 H27       -12.7491    3.3217   62.5292 H       1  ZINC000504860563    0.1500
     28 H28       -14.1276    1.2795   62.8171 H       1  ZINC000504860563    0.1500
     29 H29       -14.8923   -2.0214   63.1628 H       1  ZINC000504860563    0.1000
     30 H30       -14.5129   -0.3470   63.6331 H       1  ZINC000504860563    0.1000
     31 H31       -15.2600    0.3982   61.3424 H       1  ZINC000504860563    0.1300
     32 H32        -9.4209   -2.8464   58.6730 H       1  ZINC000504860563    0.0700
     33 H33        -9.8681   -3.5665   60.2410 H       1  ZINC000504860563    0.1600
     34 H34       -10.8933   -4.7648   58.2750 H       1  ZINC000504860563    0.0900
     35 H35       -12.1045   -4.1077   59.4028 H       1  ZINC000504860563    0.0700
     36 H36       -11.1631   -2.7539   56.8338 H       1  ZINC000504860563    0.1100
     37 H37       -12.7709   -5.7594   57.8334 H       1  ZINC000504860563    0.1800
     38 H38       -15.3459   -4.3466   54.7188 H       1  ZINC000504860563    0.1900
     39 H39       -13.0414   -1.1919   57.3077 H       1  ZINC000504860563    0.0900
     40 H40       -13.3475   -2.0400   58.8430 H       1  ZINC000504860563    0.0800
     41 H41       -11.9814   -0.0661   59.2931 H       1  ZINC000504860563    0.1000
     42 H42       -10.7969   -0.5654   58.0583 H       1  ZINC000504860563    0.0800
@<TRIPOS>BOND
     1     1     2    2
     2     2     3    1
     3     2    14   am
     4     3     8   ar
     5     3     4   ar
     6     4     5   ar
     7     5     6   ar
     8     5    26    1
     9     6     7   ar
    10     6    27    1
    11     7     8   ar
    12     7    28    1
    13     8     9    1
    14     9    10    1
    15    10    11    1
    16    10    29    1
    17    10    30    1
    18    11    12    1
    19    11    13    1
    20    11    31    1
    21    14    25    1
    22    14    15    1
    23    15    16    1
    24    15    32    1
    25    15    33    1
    26    16    17    1
    27    16    34    1
    28    16    35    1
    29    17    18    1
    30    17    24    1
    31    17    36    1
    32    18    23    1
    33    18    19    1
    34    19    20    2
    35    19    37    1
    36    20    21    1
    37    20    22    1
    38    22    23    2
    39    22    38    1
    40    24    25    1
    41    24    39    1
    42    24    40    1
    43    25    41    1
    44    25    42    1
@<TRIPOS>SUBSTRUCTURE
     1 ZINC000504860563        1 TEMP              0 ****  ****    0 ROOT


##########                                Name:    ZINC000302023461
##########                DOCK_Rotatable_Bonds:                   3
##########                         Heavy_Atoms:                  25
##########                    Molecular_Weight:             356.362
##########                DOCK_Rotatable_Bonds:                   3
##########                       Formal_Charge:        -2.08616e-07
##########                     HBond_Acceptors:                   9
##########                        HBond_Donors:                   1
##########                         Heavy_Atoms:                  25
##########                          Grid_Score:          -24.496422
##########                     Grid_vdw_energy:          -24.373829
##########                      Grid_es_energy:           -0.122593
##########           Internal_energy_repulsive:           22.569559

@<TRIPOS>MOLECULE
ZINC000302023461
 37 40 1 0 0
SMALL
USER_CHARGES


@<TRIPOS>ATOM
      1 O1        -10.9242    2.6264   52.7643 O.2     1  ZINC000302023461   -0.1600
      2 N2         -9.7943    2.6344   53.2191 N.pl3   1  ZINC000302023461    0.0200
      3 O3         -9.4480    3.5253   53.9740 O.2     1  ZINC000302023461   -0.1300
      4 C4         -8.8440    1.5580   52.8590 C.ar    1  ZINC000302023461    0.0000
      5 C5         -9.2356    0.5477   52.0034 C.ar    1  ZINC000302023461   -0.0600
      6 C6         -8.3483   -0.4584   51.6665 C.ar    1  ZINC000302023461   -0.0900
      7 C7         -7.0661   -0.4563   52.1845 C.ar    1  ZINC000302023461   -0.0800
      8 C8         -6.6674    0.5511   53.0410 C.ar    1  ZINC000302023461   -0.0500
      9 C9         -7.5544    1.5663   53.3775 C.ar    1  ZINC000302023461   -0.1100
     10 S10        -7.0499    2.8538   54.4693 S.3     1  ZINC000302023461    0.1900
     11 C11        -5.5851    3.4685   53.7073 C.2     1  ZINC000302023461    0.2100
     12 N12        -4.9381    4.5542   54.0641 N.2     1  ZINC000302023461   -0.3200
     13 N13        -3.8367    4.6767   53.2017 N.pl3   1  ZINC000302023461   -0.4700
     14 C14        -3.8952    3.6233   52.3560 C.2     1  ZINC000302023461    0.3500
     15 C15        -2.9395    3.3279   51.2668 C.ar    1  ZINC000302023461   -0.0400
     16 C16        -1.9358    4.2434   50.9494 C.ar    1  ZINC000302023461   -0.0900
     17 C17        -1.0470    3.9662   49.9322 C.ar    1  ZINC000302023461   -0.1100
     18 C18        -1.1465    2.7780   49.2206 C.ar    1  ZINC000302023461    0.0800
     19 O19        -0.2639    2.5292   48.2151 O.3     1  ZINC000302023461   -0.3000
     20 C20        -0.1588    1.1721   47.7714 C.3     1  ZINC000302023461    0.0200
     21 C21        -1.5769    0.6144   47.5896 C.3     1  ZINC000302023461    0.0200
     22 O22        -2.2521    0.6875   48.8499 O.3     1  ZINC000302023461   -0.3000
     23 C23        -2.1438    1.8591   49.5347 C.ar    1  ZINC000302023461    0.0500
     24 C24        -3.0356    2.1301   50.5574 C.ar    1  ZINC000302023461   -0.0500
     25 N25        -4.9512    2.9026   52.6781 N.2     1  ZINC000302023461   -0.5000
     26 H26       -10.2362    0.5429   51.5970 H       1  ZINC000302023461    0.1600
     27 H27        -8.6576   -1.2478   50.9975 H       1  ZINC000302023461    0.1500
     28 H28        -6.3759   -1.2434   51.9193 H       1  ZINC000302023461    0.1500
     29 H29        -5.6661    0.5518   53.4458 H       1  ZINC000302023461    0.1600
     30 H30        -3.1668    5.3782   53.2108 H       1  ZINC000302023461    0.4400
     31 H31        -1.8551    5.1691   51.5000 H       1  ZINC000302023461    0.1300
     32 H32        -0.2707    4.6762   49.6878 H       1  ZINC000302023461    0.1500
     33 H33         0.3748    1.1363   46.8217 H       1  ZINC000302023461    0.1300
     34 H34         0.3754    0.5823   48.5162 H       1  ZINC000302023461    0.0800
     35 H35        -2.1136    1.2087   46.8500 H       1  ZINC000302023461    0.0800
     36 H36        -1.5244   -0.4233   47.2603 H       1  ZINC000302023461    0.1300
     37 H37        -3.8082    1.4167   50.8036 H       1  ZINC000302023461    0.1600
@<TRIPOS>BOND
     1     1     2    2
     2     2     3    2
     3     2     4    1
     4     4     9   ar
     5     4     5   ar
     6     5     6   ar
     7     5    26    1
     8     6     7   ar
     9     6    27    1
    10     7     8   ar
    11     7    28    1
    12     8     9   ar
    13     8    29    1
    14     9    10    1
    15    10    11    1
    16    11    25    1
    17    11    12    2
    18    12    13    1
    19    13    14    1
    20    13    30    1
    21    14    15    1
    22    14    25    2
    23    15    24   ar
    24    15    16   ar
    25    16    17   ar
    26    16    31    1
    27    17    18   ar
    28    17    32    1
    29    18    23   ar
    30    18    19    1
    31    19    20    1
    32    20    21    1
    33    20    33    1
    34    20    34    1
    35    21    22    1
    36    21    35    1
    37    21    36    1
    38    22    23    1
    39    23    24   ar
    40    24    37    1
@<TRIPOS>SUBSTRUCTURE
     1 ZINC000302023461        1 TEMP              0 ****  ****    0 ROOT


##########                                Name:    ZINC000845755710
##########                DOCK_Rotatable_Bonds:                   3
##########                         Heavy_Atoms:                  24
##########                    Molecular_Weight:             349.814
##########                DOCK_Rotatable_Bonds:                   3
##########                       Formal_Charge:         -0.00999974
##########                     HBond_Acceptors:                   6
##########                        HBond_Donors:                   0
##########                         Heavy_Atoms:                  24
##########                          Grid_Score:          -24.467705
##########                     Grid_vdw_energy:          -23.610519
##########                      Grid_es_energy:           -0.857184
##########           Internal_energy_repulsive:           15.994437

@<TRIPOS>MOLECULE
ZINC000845755710
 44 47 1 0 0
SMALL
USER_CHARGES


@<TRIPOS>ATOM
      1 C1          3.7994    3.4997   53.1837 C.3     1  ZINC000845755710   -0.1700
      2 C2          3.7113    2.7822   51.8352 C.3     1  ZINC000845755710    0.2600
      3 C3          2.2487    2.4679   51.5148 C.3     1  ZINC000845755710   -0.0900
      4 C4          1.4807    3.7747   51.3040 C.3     1  ZINC000845755710   -0.1300
      5 C5          0.0097    3.4574   51.0177 C.3     1  ZINC000845755710    0.1100
      6 N6         -0.0611    2.5263   49.8834 N.am    1  ZINC000845755710   -0.6000
      7 C7         -0.8213    2.8111   48.8075 C.2     1  ZINC000845755710    0.5900
      8 O8         -1.4572    3.8475   48.7693 O.2     1  ZINC000845755710   -0.5200
      9 C9         -0.8820    1.8690   47.6798 C.2     1  ZINC000845755710   -0.2200
     10 C10        -1.4528    0.6340   47.6709 C.2     1  ZINC000845755710    0.0600
     11 O11        -1.3096    0.0756   46.4634 O.3     1  ZINC000845755710   -0.1800
     12 C12        -0.6478    0.8941   45.6191 C.ar    1  ZINC000845755710    0.0500
     13 C13        -0.2597    0.7747   44.2906 C.ar    1  ZINC000845755710   -0.0900
     14 C14         0.4233    1.8033   43.6770 C.ar    1  ZINC000845755710   -0.0800
     15 C15         0.7302    2.9631   44.3740 C.ar    1  ZINC000845755710   -0.0400
     16 Cl16        1.5914    4.2463   43.5830 Cl      1  ZINC000845755710   -0.0600
     17 C17         0.3523    3.0995   45.6941 C.ar    1  ZINC000845755710   -0.0500
     18 C18        -0.3418    2.0698   46.3202 C.ar    1  ZINC000845755710   -0.0900
     19 C19         0.7130    1.2790   49.9439 C.3     1  ZINC000845755710    0.1000
     20 C20         2.1762    1.6207   50.2424 C.3     1  ZINC000845755710   -0.1300
     21 O21         4.2589    3.6218   50.8047 O.3     1  ZINC000845755710   -0.3700
     22 C22         5.6317    3.1846   50.6615 C.3     1  ZINC000845755710    0.0100
     23 C23         5.5012    1.6578   50.8888 C.3     1  ZINC000845755710    0.0200
     24 O24         4.4656    1.5640   51.8876 O.3     1  ZINC000845755710   -0.3800
     25 H25         4.8428    3.7176   53.4119 H       1  ZINC000845755710    0.0600
     26 H26         3.2356    4.4314   53.1369 H       1  ZINC000845755710    0.0800
     27 H27         3.3826    2.8614   53.9627 H       1  ZINC000845755710    0.0800
     28 H28         1.8058    1.9163   52.3441 H       1  ZINC000845755710    0.0900
     29 H29         1.5525    4.3878   52.2025 H       1  ZINC000845755710    0.0800
     30 H30         1.9075    4.3153   50.4592 H       1  ZINC000845755710    0.0800
     31 H31        -0.4428    2.9978   51.8964 H       1  ZINC000845755710    0.0700
     32 H32        -0.5209    4.3767   50.7695 H       1  ZINC000845755710    0.1000
     33 H33        -1.9475    0.1730   48.5130 H       1  ZINC000845755710    0.2200
     34 H34        -0.4926   -0.1238   43.7385 H       1  ZINC000845755710    0.1500
     35 H35         0.7226    1.7052   42.6440 H       1  ZINC000845755710    0.1500
     36 H36         0.5911    4.0022   46.2369 H       1  ZINC000845755710    0.1400
     37 H37         0.3180    0.6417   50.7351 H       1  ZINC000845755710    0.0800
     38 H38         0.6466    0.7608   48.9873 H       1  ZINC000845755710    0.0900
     39 H39         2.5964    2.1816   49.4074 H       1  ZINC000845755710    0.0700
     40 H40         2.7429    0.7007   50.3850 H       1  ZINC000845755710    0.0800
     41 H41         6.0073    3.3996   49.6611 H       1  ZINC000845755710    0.1100
     42 H42         6.2673    3.6393   51.4214 H       1  ZINC000845755710    0.0800
     43 H43         5.1969    1.1563   49.9701 H       1  ZINC000845755710    0.0800
     44 H44         6.4367    1.2428   51.2637 H       1  ZINC000845755710    0.1000
@<TRIPOS>BOND
     1     1     2    1
     2     1    25    1
     3     1    26    1
     4     1    27    1
     5     2    24    1
     6     2     3    1
     7     2    21    1
     8     3    20    1
     9     3     4    1
    10     3    28    1
    11     4     5    1
    12     4    29    1
    13     4    30    1
    14     5     6    1
    15     5    31    1
    16     5    32    1
    17     6     7   am
    18     6    19    1
    19     7     8    2
    20     7     9    1
    21     9    18    1
    22     9    10    2
    23    10    11    1
    24    10    33    1
    25    11    12    1
    26    12    18   ar
    27    12    13   ar
    28    13    14   ar
    29    13    34    1
    30    14    15   ar
    31    14    35    1
    32    15    16    1
    33    15    17   ar
    34    17    18   ar
    35    17    36    1
    36    19    20    1
    37    19    37    1
    38    19    38    1
    39    20    39    1
    40    20    40    1
    41    21    22    1
    42    22    23    1
    43    22    41    1
    44    22    42    1
    45    23    24    1
    46    23    43    1
    47    23    44    1
@<TRIPOS>SUBSTRUCTURE
     1 ZINC000845755710        1 TEMP              0 ****  ****    0 ROOT


##########                                Name:    ZINC000656860804
##########                DOCK_Rotatable_Bonds:                   2
##########                         Heavy_Atoms:                  19
##########                    Molecular_Weight:             388.068
##########                DOCK_Rotatable_Bonds:                   2
##########                       Formal_Charge:          8.9407e-08
##########                     HBond_Acceptors:                   8
##########                        HBond_Donors:                   1
##########                         Heavy_Atoms:                  19
##########                          Grid_Score:          -24.419092
##########                     Grid_vdw_energy:          -24.333313
##########                      Grid_es_energy:           -0.085779
##########           Internal_energy_repulsive:           19.290016

@<TRIPOS>MOLECULE
ZINC000656860804
 28 29 1 0 0
SMALL
USER_CHARGES


@<TRIPOS>ATOM
      1 O1          2.5049    0.8227   51.9130 O.2     1  ZINC000656860804   -0.5400
      2 C2          1.7612    1.7310   51.6085 C.2     1  ZINC000656860804    0.5100
      3 C3          1.2426    1.7915   50.1976 C.3     1  ZINC000656860804    0.1100
      4 N4          0.1441    2.7671   50.1355 N.am    1  ZINC000656860804   -1.0000
      5 S5         -1.2420    2.4508   49.2864 S.o2    1  ZINC000656860804    2.6900
      6 O6         -1.7294    1.2043   49.7636 O.2     1  ZINC000656860804   -0.9200
      7 O7         -2.0095    3.6465   49.3114 O.2     1  ZINC000656860804   -0.9300
      8 C8         -0.7773    2.1931   47.6065 C.ar    1  ZINC000656860804   -0.6500
      9 C9         -1.1046    1.0094   46.9731 C.ar    1  ZINC000656860804    0.0100
     10 C10        -0.7399    0.8065   45.6540 C.ar    1  ZINC000656860804   -0.0400
     11 Cl11       -1.1516   -0.6804   44.8582 Cl      1  ZINC000656860804   -0.0200
     12 C12        -0.0469    1.7898   44.9687 C.ar    1  ZINC000656860804    0.0200
     13 Cl13        0.4105    1.5364   43.3133 Cl      1  ZINC000656860804   -0.0100
     14 C14         0.2803    2.9746   45.6034 C.ar    1  ZINC000656860804   -0.0900
     15 C15        -0.0898    3.1784   46.9202 C.ar    1  ZINC000656860804    0.0100
     16 Br16        0.3576    4.7978   47.7880 Br      1  ZINC000656860804    0.0100
     17 C17         0.3264    4.0364   50.8596 C.3     1  ZINC000656860804    0.0900
     18 C18         0.4917    3.7184   52.3469 C.3     1  ZINC000656860804    0.0800
     19 N19         1.4363    2.6273   52.5414 N.am    1  ZINC000656860804   -0.7100
     20 H20         2.0443    2.1013   49.5270 H       1  ZINC000656860804    0.1200
     21 H21         0.8756    0.8090   49.9010 H       1  ZINC000656860804    0.1200
     22 H22        -1.6449    0.2423   47.5080 H       1  ZINC000656860804    0.1700
     23 H23         0.8212    3.7418   45.0694 H       1  ZINC000656860804    0.1700
     24 H24         1.2171    4.5454   50.4911 H       1  ZINC000656860804    0.1000
     25 H25        -0.5474    4.6715   50.7142 H       1  ZINC000656860804    0.1200
     26 H26         0.8537    4.6061   52.8655 H       1  ZINC000656860804    0.1000
     27 H27        -0.4743    3.4302   52.7617 H       1  ZINC000656860804    0.0800
     28 H28         1.8641    2.5503   53.4085 H       1  ZINC000656860804    0.4000
@<TRIPOS>BOND
     1     1     2    2
     2     2    19   am
     3     2     3    1
     4     3     4    1
     5     3    20    1
     6     3    21    1
     7     4     5   am
     8     4    17    1
     9     5     6    2
    10     5     7    2
    11     5     8    1
    12     8    15   ar
    13     8     9   ar
    14     9    10   ar
    15     9    22    1
    16    10    11    1
    17    10    12   ar
    18    12    13    1
    19    12    14   ar
    20    14    15   ar
    21    14    23    1
    22    15    16    1
    23    17    18    1
    24    17    24    1
    25    17    25    1
    26    18    19    1
    27    18    26    1
    28    18    27    1
    29    19    28    1
@<TRIPOS>SUBSTRUCTURE
     1 ZINC000656860804        1 TEMP              0 ****  ****    0 ROOT


##########                                Name:    ZINC000004040798
##########                DOCK_Rotatable_Bonds:                   3
##########                         Heavy_Atoms:                  22
##########                    Molecular_Weight:             361.151
##########                DOCK_Rotatable_Bonds:                   3
##########                       Formal_Charge:           0.0200003
##########                     HBond_Acceptors:                   6
##########                        HBond_Donors:                   1
##########                         Heavy_Atoms:                  22
##########                          Grid_Score:          -24.375845
##########                     Grid_vdw_energy:          -22.801374
##########                      Grid_es_energy:           -1.574470
##########           Internal_energy_repulsive:            1.997651

@<TRIPOS>MOLECULE
ZINC000004040798
 31 33 1 0 0
SMALL
USER_CHARGES


@<TRIPOS>ATOM
      1 O1         -2.5982    2.5981   50.4684 O.2     1  ZINC000004040798   -0.4800
      2 C2         -1.4796    2.9085   50.8326 C.2     1  ZINC000004040798    0.6100
      3 N3         -0.4120    2.5957   50.0717 N.am    1  ZINC000004040798   -0.6600
      4 C4         -0.5896    1.9094   48.8662 C.ar    1  ZINC000004040798    0.2300
      5 C5         -0.7874    0.5350   48.8705 C.ar    1  ZINC000004040798   -0.1300
      6 C6         -0.9623   -0.1401   47.6780 C.ar    1  ZINC000004040798   -0.0100
      7 C7         -0.9406    0.5508   46.4807 C.ar    1  ZINC000004040798   -0.0600
      8 N8         -1.1285   -0.1762   45.2051 N.pl3   1  ZINC000004040798    0.0300
      9 O9         -1.3018   -1.3818   45.2111 O.2     1  ZINC000004040798   -0.1500
     10 O10        -1.1098    0.4310   44.1495 O.2     1  ZINC000004040798   -0.1500
     11 C11        -0.7444    1.9199   46.4720 C.ar    1  ZINC000004040798    0.0000
     12 C12        -0.5740    2.6022   47.6613 C.ar    1  ZINC000004040798   -0.1400
     13 Br13       -0.3058    4.4740   47.6488 Br      1  ZINC000004040798    0.0000
     14 C14        -1.2931    3.6296   52.0992 C.2     1  ZINC000004040798   -0.0500
     15 C15        -2.2909    3.9919   52.9466 C.2     1  ZINC000004040798   -0.0800
     16 C16        -1.6440    4.6796   54.0636 C.ar    1  ZINC000004040798   -0.1500
     17 C17        -2.1067    5.2795   55.2369 C.ar    1  ZINC000004040798   -0.0500
     18 C18        -1.2165    5.8531   56.1008 C.ar    1  ZINC000004040798   -0.1400
     19 C19         0.1426    5.8434   55.8194 C.ar    1  ZINC000004040798   -0.0700
     20 C20         0.6194    5.2565   54.6669 C.ar    1  ZINC000004040798   -0.1100
     21 C21        -0.2667    4.6664   53.7734 C.ar    1  ZINC000004040798    0.0800
     22 O22        -0.1040    4.0268   52.5988 O.3     1  ZINC000004040798   -0.1900
     23 H23         0.4794    2.8468   50.3602 H       1  ZINC000004040798    0.4300
     24 H24        -0.8040   -0.0057   49.8053 H       1  ZINC000004040798    0.1800
     25 H25        -1.1157   -1.2091   47.6811 H       1  ZINC000004040798    0.1700
     26 H26        -0.7281    2.4567   45.5350 H       1  ZINC000004040798    0.1700
     27 H27        -3.3479    3.8096   52.8208 H       1  ZINC000004040798    0.1800
     28 H28        -3.1632    5.2904   55.4603 H       1  ZINC000004040798    0.1400
     29 H29        -1.5730    6.3174   57.0083 H       1  ZINC000004040798    0.1400
     30 H30         0.8343    6.3012   56.5110 H       1  ZINC000004040798    0.1400
     31 H31         1.6791    5.2548   54.4588 H       1  ZINC000004040798    0.1400
@<TRIPOS>BOND
     1     1     2    2
     2     2     3   am
     3     2    14    1
     4     3     4    1
     5     3    23    1
     6     4    12   ar
     7     4     5   ar
     8     5     6   ar
     9     5    24    1
    10     6     7   ar
    11     6    25    1
    12     7     8    1
    13     7    11   ar
    14     8     9    2
    15     8    10    2
    16    11    12   ar
    17    11    26    1
    18    12    13    1
    19    14    22    1
    20    14    15    2
    21    15    16    1
    22    15    27    1
    23    16    21   ar
    24    16    17   ar
    25    17    18   ar
    26    17    28    1
    27    18    19   ar
    28    18    29    1
    29    19    20   ar
    30    19    30    1
    31    20    21   ar
    32    20    31    1
    33    21    22    1
@<TRIPOS>SUBSTRUCTURE
     1 ZINC000004040798        1 TEMP              0 ****  ****    0 ROOT


##########                                Name:    ZINC000444542200
##########                DOCK_Rotatable_Bonds:                   8
##########                         Heavy_Atoms:                  28
##########                    Molecular_Weight:             404.337
##########                DOCK_Rotatable_Bonds:                   8
##########                       Formal_Charge:           0.0200001
##########                     HBond_Acceptors:                  10
##########                        HBond_Donors:                   1
##########                         Heavy_Atoms:                  28
##########                          Grid_Score:          -24.267578
##########                     Grid_vdw_energy:          -24.274725
##########                      Grid_es_energy:            0.007147
##########           Internal_energy_repulsive:           21.686947

@<TRIPOS>MOLECULE
ZINC000444542200
 45 46 1 0 0
SMALL
USER_CHARGES


@<TRIPOS>ATOM
      1 C1        -16.8620   -3.2488   60.6054 C.3     1  ZINC000444542200    0.0300
      2 O2        -16.2640   -4.3132   59.8627 O.3     1  ZINC000444542200   -0.3100
      3 C3        -15.8237   -4.0206   58.6108 C.ar    1  ZINC000444542200    0.1800
      4 C4        -15.7589   -2.7012   58.1896 C.ar    1  ZINC000444542200   -0.1700
      5 C5        -15.3088   -2.4024   56.9110 C.ar    1  ZINC000444542200    0.2300
      6 N6        -15.2427   -1.0709   56.4856 N.am    1  ZINC000444542200   -0.5800
      7 C7        -16.4347   -0.4157   55.9414 C.3     1  ZINC000444542200    0.0700
      8 C8        -14.0824   -0.3913   56.5765 C.2     1  ZINC000444542200    0.7100
      9 O9        -14.0248    0.7656   56.2067 O.2     1  ZINC000444542200   -0.5500
     10 N10       -12.9858   -0.9940   57.0772 N.am    1  ZINC000444542200   -0.7300
     11 C11       -11.7250   -0.2547   57.1777 C.3     1  ZINC000444542200    0.1700
     12 H12       -11.9337    0.7895   57.4107 H       1  ZINC000444542200    0.1500
     13 C13       -10.8773   -0.8535   58.2703 C.ar    1  ZINC000444542200   -0.1300
     14 C14       -10.3053   -2.0997   58.0967 C.ar    1  ZINC000444542200   -0.0800
     15 C15        -9.5274   -2.6504   59.0982 C.ar    1  ZINC000444542200   -0.0900
     16 C16        -9.3200   -1.9560   60.2751 C.ar    1  ZINC000444542200   -0.1100
     17 C17        -9.8914   -0.7078   60.4520 C.ar    1  ZINC000444542200    0.0800
     18 F18        -9.6891   -0.0284   61.6021 F       1  ZINC000444542200   -0.1200
     19 C19       -10.6668   -0.1530   59.4454 C.ar    1  ZINC000444542200    0.1000
     20 F20       -11.2256    1.0652   59.6158 F       1  ZINC000444542200   -0.1100
     21 C21       -10.9761   -0.3403   55.8462 C.3     1  ZINC000444542200    0.4400
     22 F22        -9.6009   -0.2263   56.0764 F       1  ZINC000444542200   -0.1600
     23 F23       -11.2466   -1.5706   55.2375 F       1  ZINC000444542200   -0.1700
     24 F24       -11.3961    0.6974   55.0073 F       1  ZINC000444542200   -0.1800
     25 C25       -14.9237   -3.4249   56.0549 C.ar    1  ZINC000444542200   -0.1900
     26 C26       -14.9891   -4.7438   56.4772 C.ar    1  ZINC000444542200    0.1800
     27 O27       -14.6121   -5.7450   55.6392 O.3     1  ZINC000444542200   -0.3100
     28 C28       -14.7103   -7.0803   56.1382 C.3     1  ZINC000444542200    0.0300
     29 C29       -15.4339   -5.0413   57.7567 C.ar    1  ZINC000444542200   -0.2900
     30 H30       -16.1395   -2.4422   60.7301 H       1  ZINC000444542200    0.0600
     31 H31       -17.7339   -2.8758   60.0680 H       1  ZINC000444542200    0.0600
     32 H32       -17.1687   -3.6166   61.5846 H       1  ZINC000444542200    0.1000
     33 H33       -16.0589   -1.9062   58.8562 H       1  ZINC000444542200    0.1300
     34 H34       -16.9884    0.0610   56.7503 H       1  ZINC000444542200    0.0700
     35 H35       -16.1346    0.3376   55.2131 H       1  ZINC000444542200    0.0700
     36 H36       -17.0678   -1.1585   55.4560 H       1  ZINC000444542200    0.0900
     37 H37       -13.0313   -1.9173   57.3710 H       1  ZINC000444542200    0.4100
     38 H38       -10.4665   -2.6440   57.1780 H       1  ZINC000444542200    0.1400
     39 H39        -9.0816   -3.6245   58.9609 H       1  ZINC000444542200    0.1500
     40 H40        -8.7124   -2.3874   61.0568 H       1  ZINC000444542200    0.1500
     41 H41       -14.5738   -3.1931   55.0597 H       1  ZINC000444542200    0.1400
     42 H42       -15.7459   -7.2941   56.4029 H       1  ZINC000444542200    0.0600
     43 H43       -14.3795   -7.7803   55.3709 H       1  ZINC000444542200    0.1000
     44 H44       -14.0805   -7.1853   57.0217 H       1  ZINC000444542200    0.0600
     45 H45       -15.4846   -6.0689   58.0853 H       1  ZINC000444542200    0.1400
@<TRIPOS>BOND
     1     1     2    1
     2     1    30    1
     3     1    31    1
     4     1    32    1
     5     2     3    1
     6     3    29   ar
     7     3     4   ar
     8     4     5   ar
     9     4    33    1
    10     5     6    1
    11     5    25   ar
    12     6     7    1
    13     6     8   am
    14     7    34    1
    15     7    35    1
    16     7    36    1
    17     8     9    2
    18     8    10   am
    19    10    11    1
    20    10    37    1
    21    11    12    1
    22    11    13    1
    23    11    21    1
    24    13    19   ar
    25    13    14   ar
    26    14    15   ar
    27    14    38    1
    28    15    16   ar
    29    15    39    1
    30    16    17   ar
    31    16    40    1
    32    17    18    1
    33    17    19   ar
    34    19    20    1
    35    21    22    1
    36    21    23    1
    37    21    24    1
    38    25    26   ar
    39    25    41    1
    40    26    27    1
    41    26    29   ar
    42    27    28    1
    43    28    42    1
    44    28    43    1
    45    28    44    1
    46    29    45    1
@<TRIPOS>SUBSTRUCTURE
     1 ZINC000444542200        1 TEMP              0 ****  ****    0 ROOT


##########                                Name:    ZINC000840649129
##########                DOCK_Rotatable_Bonds:                   8
##########                         Heavy_Atoms:                  26
##########                    Molecular_Weight:             376.839
##########                DOCK_Rotatable_Bonds:                   8
##########                       Formal_Charge:          -0.0199998
##########                     HBond_Acceptors:                   7
##########                        HBond_Donors:                   3
##########                         Heavy_Atoms:                  26
##########                          Grid_Score:          -24.267315
##########                     Grid_vdw_energy:          -24.662090
##########                      Grid_es_energy:            0.394776
##########           Internal_energy_repulsive:            9.849170

@<TRIPOS>MOLECULE
ZINC000840649129
 47 48 1 0 0
SMALL
USER_CHARGES


@<TRIPOS>ATOM
      1 C1        -15.6545   -2.9365   62.0140 C.3     1  ZINC000840649129    0.0200
      2 O2        -14.8849   -2.9820   60.8108 O.3     1  ZINC000840649129   -0.2900
      3 C3        -15.4806   -2.5237   59.6806 C.ar    1  ZINC000840649129    0.1400
      4 C4        -16.5722   -3.1937   59.1498 C.ar    1  ZINC000840649129   -0.1700
      5 C5        -17.1795   -2.7293   58.0004 C.ar    1  ZINC000840649129   -0.1200
      6 C6        -16.7025   -1.5869   57.3662 C.ar    1  ZINC000840649129    0.1700
      7 N7        -17.3249   -1.1236   56.2014 N.pl3   1  ZINC000840649129   -0.8800
      8 C8        -15.6142   -0.9068   57.8849 C.ar    1  ZINC000840649129   -0.1000
      9 C9        -14.9972   -1.3686   59.0504 C.ar    1  ZINC000840649129   -0.1200
     10 C10       -13.8380   -0.6499   59.6095 C.2     1  ZINC000840649129    0.5100
     11 O11       -13.9796    0.0726   60.5763 O.2     1  ZINC000840649129   -0.4800
     12 O12       -12.6213   -0.7942   59.0487 O.3     1  ZINC000840649129   -0.3200
     13 C13       -11.6590   -1.6137   59.7633 C.3     1  ZINC000840649129    0.0800
     14 H14       -12.1537   -2.5079   60.1424 H       1  ZINC000840649129    0.1200
     15 C15       -11.0884   -0.8284   60.9161 C.2     1  ZINC000840649129    0.5200
     16 O16       -10.3917    0.1414   60.7035 O.2     1  ZINC000840649129   -0.4900
     17 N17       -11.3525   -1.2037   62.1833 N.am    1  ZINC000840649129   -0.6600
     18 C18       -10.8226   -0.4743   63.2542 C.ar    1  ZINC000840649129    0.1600
     19 C19        -9.4489   -0.4183   63.4454 C.ar    1  ZINC000840649129   -0.1400
     20 C20        -8.9287    0.3027   64.5030 C.ar    1  ZINC000840649129   -0.0900
     21 C21        -9.7744    0.9684   65.3708 C.ar    1  ZINC000840649129   -0.1300
     22 C22       -11.1438    0.9147   65.1840 C.ar    1  ZINC000840649129   -0.0900
     23 C23       -11.6704    0.2001   64.1250 C.ar    1  ZINC000840649129   -0.0700
     24 Cl24      -13.3892    0.1335   63.8904 Cl      1  ZINC000840649129   -0.0700
     25 C25       -10.5297   -2.0191   58.8140 C.3     1  ZINC000840649129   -0.1100
     26 C26        -9.5154   -2.8820   59.5672 C.3     1  ZINC000840649129   -0.1600
     27 C27       -11.1088   -2.8171   57.6440 C.3     1  ZINC000840649129   -0.1500
     28 H28       -15.0620   -3.3310   62.8395 H       1  ZINC000840649129    0.1000
     29 H29       -15.9339   -1.9049   62.2279 H       1  ZINC000840649129    0.0600
     30 H30       -16.5547   -3.5390   61.8925 H       1  ZINC000840649129    0.0600
     31 H31       -16.9481   -4.0814   59.6366 H       1  ZINC000840649129    0.1400
     32 H32       -18.0291   -3.2559   57.5912 H       1  ZINC000840649129    0.1300
     33 H33       -18.0879   -1.5991   55.8371 H       1  ZINC000840649129    0.4000
     34 H34       -16.9932   -0.3271   55.7582 H       1  ZINC000840649129    0.4000
     35 H35       -15.2450   -0.0196   57.3919 H       1  ZINC000840649129    0.1400
     36 H36       -11.9098   -1.9792   62.3534 H       1  ZINC000840649129    0.4200
     37 H37        -8.7872   -0.9382   62.7684 H       1  ZINC000840649129    0.1700
     38 H38        -7.8599    0.3461   64.6523 H       1  ZINC000840649129    0.1300
     39 H39        -9.3648    1.5312   66.1965 H       1  ZINC000840649129    0.1300
     40 H40       -11.8018    1.4355   65.8637 H       1  ZINC000840649129    0.1400
     41 H41       -10.0353   -1.1249   58.4346 H       1  ZINC000840649129    0.0900
     42 H42       -10.0322   -3.7094   60.0536 H       1  ZINC000840649129    0.0700
     43 H43        -8.7804   -3.2753   58.8650 H       1  ZINC000840649129    0.0800
     44 H44        -9.0109   -2.2761   60.3199 H       1  ZINC000840649129    0.0600
     45 H45       -11.8315   -2.2023   57.1073 H       1  ZINC000840649129    0.0500
     46 H46       -10.3043   -3.1060   56.9677 H       1  ZINC000840649129    0.0600
     47 H47       -11.6033   -3.7113   58.0234 H       1  ZINC000840649129    0.0700
@<TRIPOS>BOND
     1     1     2    1
     2     1    28    1
     3     1    29    1
     4     1    30    1
     5     2     3    1
     6     3     9   ar
     7     3     4   ar
     8     4     5   ar
     9     4    31    1
    10     5     6   ar
    11     5    32    1
    12     6     7    1
    13     6     8   ar
    14     7    33    1
    15     7    34    1
    16     8     9   ar
    17     8    35    1
    18     9    10    1
    19    10    11    2
    20    10    12    1
    21    12    13    1
    22    13    14    1
    23    13    15    1
    24    13    25    1
    25    15    16    2
    26    15    17   am
    27    17    18    1
    28    17    36    1
    29    18    23   ar
    30    18    19   ar
    31    19    20   ar
    32    19    37    1
    33    20    21   ar
    34    20    38    1
    35    21    22   ar
    36    21    39    1
    37    22    23   ar
    38    22    40    1
    39    23    24    1
    40    25    26    1
    41    25    27    1
    42    25    41    1
    43    26    42    1
    44    26    43    1
    45    26    44    1
    46    27    45    1
    47    27    46    1
    48    27    47    1
@<TRIPOS>SUBSTRUCTURE
     1 ZINC000840649129        1 TEMP              0 ****  ****    0 ROOT


##########                                Name:    ZINC000883773972
##########                DOCK_Rotatable_Bonds:                   4
##########                         Heavy_Atoms:                  23
##########                    Molecular_Weight:             343.447
##########                DOCK_Rotatable_Bonds:                   4
##########                       Formal_Charge:                0.01
##########                     HBond_Acceptors:                   8
##########                        HBond_Donors:                   1
##########                         Heavy_Atoms:                  23
##########                          Grid_Score:          -24.241234
##########                     Grid_vdw_energy:          -23.345724
##########                      Grid_es_energy:           -0.895510
##########           Internal_energy_repulsive:            5.276170

@<TRIPOS>MOLECULE
ZINC000883773972
 48 50 1 0 0
SMALL
USER_CHARGES


@<TRIPOS>ATOM
      1 C1          0.7606    4.7627   58.2973 C.3     1  ZINC000883773972   -0.1700
      2 C2         -0.6180    4.7857   57.6888 C.2     1  ZINC000883773972    0.5300
      3 O3         -1.5827    5.0306   58.3818 O.2     1  ZINC000883773972   -0.5400
      4 N4         -0.7787    4.5342   56.3745 N.am    1  ZINC000883773972   -0.6200
      5 C5         -2.0485    4.5227   55.6298 C.3     1  ZINC000883773972    0.1100
      6 C6         -1.7165    4.9800   54.1996 C.3     1  ZINC000883773972   -0.1100
      7 H7         -2.0113    6.0149   54.0257 H       1  ZINC000883773972    0.1000
      8 C8         -2.3731    4.0208   53.1926 C.3     1  ZINC000883773972    0.1300
      9 N9         -1.3271    3.6579   52.2225 N.am    1  ZINC000883773972   -0.6400
     10 C10        -1.5046    3.3624   50.9195 C.2     1  ZINC000883773972    0.7300
     11 O11        -2.6213    3.3792   50.4389 O.2     1  ZINC000883773972   -0.5800
     12 N12        -0.4441    3.0481   50.1493 N.am    1  ZINC000883773972   -0.7400
     13 C13        -0.6372    2.7251   48.7335 C.3     1  ZINC000883773972    0.1800
     14 H14        -1.6432    3.0154   48.4301 H       1  ZINC000883773972    0.1100
     15 C15         0.3845    3.4886   47.8958 C.3     1  ZINC000883773972   -0.1500
     16 C16         0.0558    3.3736   46.4102 C.3     1  ZINC000883773972   -0.1000
     17 C17         0.3143    1.9449   45.9263 C.3     1  ZINC000883773972   -0.5600
     18 H18         1.3458    1.6674   46.1431 H       1  ZINC000883773972    0.1400
     19 C19         0.0678    1.8625   44.4186 C.3     1  ZINC000883773972   -0.1400
     20 S20        -0.8140    0.8142   46.7918 S.o2    1  ZINC000883773972    2.4200
     21 O21        -2.1516    1.1941   46.4988 O.2     1  ZINC000883773972   -0.9200
     22 O22        -0.3997   -0.5217   46.5411 O.2     1  ZINC000883773972   -0.9300
     23 C23        -0.4592    1.2193   48.5271 C.3     1  ZINC000883773972   -0.6300
     24 C24        -0.0493    3.6809   52.9533 C.3     1  ZINC000883773972    0.1100
     25 C25        -0.1882    4.7803   54.0509 C.3     1  ZINC000883773972   -0.1100
     26 H26         0.3372    5.6953   53.7775 H       1  ZINC000883773972    0.1000
     27 C27         0.2819    4.2237   55.4020 C.3     1  ZINC000883773972    0.1100
     28 H28         0.6917    4.9878   59.3616 H       1  ZINC000883773972    0.0900
     29 H29         1.2008    3.7747   58.1627 H       1  ZINC000883773972    0.0900
     30 H30         1.3863    5.5091   57.8079 H       1  ZINC000883773972    0.0900
     31 H31        -2.4636    3.5150   55.6135 H       1  ZINC000883773972    0.0800
     32 H32        -2.7573    5.2125   56.0881 H       1  ZINC000883773972    0.0900
     33 H33        -2.7333    3.1291   53.7057 H       1  ZINC000883773972    0.0700
     34 H34        -3.1983    4.5195   52.6842 H       1  ZINC000883773972    0.0900
     35 H35         0.4469    3.0359   50.5324 H       1  ZINC000883773972    0.4000
     36 H36         0.3736    4.5392   48.1858 H       1  ZINC000883773972    0.0900
     37 H37         1.3772    3.0768   48.0771 H       1  ZINC000883773972    0.0800
     38 H38        -0.9927    3.6253   46.2511 H       1  ZINC000883773972    0.0900
     39 H39         0.6820    4.0653   45.8466 H       1  ZINC000883773972    0.0900
     40 H40         0.7407    2.5474   43.9026 H       1  ZINC000883773972    0.0800
     41 H41         0.2522    0.8445   44.0754 H       1  ZINC000883773972    0.0700
     42 H42        -0.9650    2.1369   44.2038 H       1  ZINC000883773972    0.0800
     43 H43         0.5657    0.9349   48.7658 H       1  ZINC000883773972    0.1400
     44 H44        -1.1493    0.6800   49.1760 H       1  ZINC000883773972    0.1400
     45 H45         0.1381    2.7091   53.4098 H       1  ZINC000883773972    0.0800
     46 H46         0.7645    3.9398   52.2760 H       1  ZINC000883773972    0.0800
     47 H47         1.2260    4.6865   55.6893 H       1  ZINC000883773972    0.0900
     48 H48         0.3984    3.1416   55.3408 H       1  ZINC000883773972    0.0700
@<TRIPOS>BOND
     1     1     2    1
     2     1    28    1
     3     1    29    1
     4     1    30    1
     5     2     3    2
     6     2     4   am
     7     4    27    1
     8     4     5    1
     9     5     6    1
    10     5    31    1
    11     5    32    1
    12     6     7    1
    13     6    25    1
    14     6     8    1
    15     8     9    1
    16     8    33    1
    17     8    34    1
    18     9    10   am
    19     9    24    1
    20    10    11    2
    21    10    12   am
    22    12    13    1
    23    12    35    1
    24    13    14    1
    25    13    23    1
    26    13    15    1
    27    15    16    1
    28    15    36    1
    29    15    37    1
    30    16    17    1
    31    16    38    1
    32    16    39    1
    33    17    18    1
    34    17    19    1
    35    17    20    1
    36    19    40    1
    37    19    41    1
    38    19    42    1
    39    20    21    2
    40    20    22    2
    41    20    23    1
    42    23    43    1
    43    23    44    1
    44    24    25    1
    45    24    45    1
    46    24    46    1
    47    25    26    1
    48    25    27    1
    49    27    47    1
    50    27    48    1
@<TRIPOS>SUBSTRUCTURE
     1 ZINC000883773972        1 TEMP              0 ****  ****    0 ROOT


##########                                Name:    ZINC000341804698
##########                DOCK_Rotatable_Bonds:                   7
##########                         Heavy_Atoms:                  24
##########                    Molecular_Weight:             342.318
##########                DOCK_Rotatable_Bonds:                   7
##########                       Formal_Charge:                0.02
##########                     HBond_Acceptors:                   8
##########                        HBond_Donors:                   0
##########                         Heavy_Atoms:                  24
##########                          Grid_Score:          -24.196745
##########                     Grid_vdw_energy:          -24.297016
##########                      Grid_es_energy:            0.100272
##########           Internal_energy_repulsive:           27.141171

@<TRIPOS>MOLECULE
ZINC000341804698
 41 42 1 0 0
SMALL
USER_CHARGES


@<TRIPOS>ATOM
      1 C1         -9.3054   -1.1782   61.3946 C.3     1  ZINC000341804698    0.0300
      2 O2         -9.5261   -1.0989   59.9850 O.3     1  ZINC000341804698   -0.3900
      3 C3         -9.9644   -2.3247   59.3954 C.3     1  ZINC000341804698    0.0700
      4 C4        -11.3653   -2.1366   58.8098 C.3     1  ZINC000341804698    0.0400
      5 C5        -11.5224   -0.7469   58.3505 C.1     1  ZINC000341804698    0.2200
      6 N6        -11.6436    0.3254   57.9960 N.1     1  ZINC000341804698   -0.4200
      7 C7        -11.5555   -3.0889   57.6270 C.3     1  ZINC000341804698   -0.1200
      8 C8        -12.9462   -2.8735   57.0217 C.3     1  ZINC000341804698    0.1100
      9 N9        -13.9518   -3.0209   58.0827 N.am    1  ZINC000341804698   -0.6000
     10 C10       -14.9821   -3.8776   57.9381 C.2     1  ZINC000341804698    0.5700
     11 O11       -15.8075   -3.9905   58.8234 O.2     1  ZINC000341804698   -0.5200
     12 C12       -15.1086   -4.6801   56.7029 C.ar    1  ZINC000341804698   -0.0900
     13 C13       -14.5352   -5.9506   56.6314 C.ar    1  ZINC000341804698   -0.1100
     14 C14       -14.6550   -6.6970   55.4768 C.ar    1  ZINC000341804698   -0.0800
     15 C15       -15.3417   -6.1903   54.3892 C.ar    1  ZINC000341804698   -0.1700
     16 C16       -15.9150   -4.9272   54.4507 C.ar    1  ZINC000341804698    0.1100
     17 O17       -16.5886   -4.4339   53.3783 O.3     1  ZINC000341804698   -0.3100
     18 C18       -16.5767   -5.2219   52.1861 C.3     1  ZINC000341804698    0.6000
     19 F19       -15.2539   -5.4820   51.8123 F       1  ZINC000341804698   -0.1600
     20 F20       -17.2416   -6.4304   52.4193 F       1  ZINC000341804698   -0.1300
     21 F21       -17.2228   -4.5246   51.1598 F       1  ZINC000341804698   -0.1600
     22 C22       -15.8063   -4.1725   55.6063 C.ar    1  ZINC000341804698   -0.0700
     23 C23       -13.8124   -2.2171   59.3047 C.3     1  ZINC000341804698    0.0900
     24 C24       -12.4121   -2.4399   59.8843 C.3     1  ZINC000341804698   -0.1200
     25 H25       -10.2329   -1.4609   61.8923 H       1  ZINC000341804698    0.0400
     26 H26        -8.5398   -1.9261   61.6009 H       1  ZINC000341804698    0.0500
     27 H27        -8.9749   -0.2081   61.7657 H       1  ZINC000341804698    0.0900
     28 H28        -9.2747   -2.6133   58.6023 H       1  ZINC000341804698    0.0700
     29 H29        -9.9903   -3.1049   60.1562 H       1  ZINC000341804698    0.0600
     30 H30       -10.7952   -2.8879   56.8723 H       1  ZINC000341804698    0.1000
     31 H31       -11.4640   -4.1192   57.9709 H       1  ZINC000341804698    0.0900
     32 H32       -13.0084   -1.8720   56.5960 H       1  ZINC000341804698    0.0700
     33 H33       -13.1249   -3.6154   56.2434 H       1  ZINC000341804698    0.1100
     34 H34       -13.9978   -6.3493   57.4791 H       1  ZINC000341804698    0.1400
     35 H35       -14.2107   -7.6798   55.4226 H       1  ZINC000341804698    0.1400
     36 H36       -15.4323   -6.7789   53.4882 H       1  ZINC000341804698    0.1400
     37 H37       -16.2520   -3.1900   55.6557 H       1  ZINC000341804698    0.1500
     38 H38       -13.9453   -1.1621   59.0651 H       1  ZINC000341804698    0.0800
     39 H39       -14.5626   -2.5258   60.0327 H       1  ZINC000341804698    0.1100
     40 H40       -12.3124   -3.4762   60.2070 H       1  ZINC000341804698    0.1000
     41 H41       -12.2613   -1.7769   60.7364 H       1  ZINC000341804698    0.0900
@<TRIPOS>BOND
     1     1     2    1
     2     1    25    1
     3     1    26    1
     4     1    27    1
     5     2     3    1
     6     3     4    1
     7     3    28    1
     8     3    29    1
     9     4    24    1
    10     4     5    1
    11     4     7    1
    12     5     6    3
    13     7     8    1
    14     7    30    1
    15     7    31    1
    16     8     9    1
    17     8    32    1
    18     8    33    1
    19     9    10   am
    20     9    23    1
    21    10    11    2
    22    10    12    1
    23    12    22   ar
    24    12    13   ar
    25    13    14   ar
    26    13    34    1
    27    14    15   ar
    28    14    35    1
    29    15    16   ar
    30    15    36    1
    31    16    17    1
    32    16    22   ar
    33    17    18    1
    34    18    19    1
    35    18    20    1
    36    18    21    1
    37    22    37    1
    38    23    24    1
    39    23    38    1
    40    23    39    1
    41    24    40    1
    42    24    41    1
@<TRIPOS>SUBSTRUCTURE
     1 ZINC000341804698        1 TEMP              0 ****  ****    0 ROOT


##########                                Name:    ZINC001708427409
##########                DOCK_Rotatable_Bonds:                   6
##########                         Heavy_Atoms:                  24
##########                    Molecular_Weight:             334.505
##########                DOCK_Rotatable_Bonds:                   6
##########                       Formal_Charge:          -0.0200006
##########                     HBond_Acceptors:                   5
##########                        HBond_Donors:                   1
##########                         Heavy_Atoms:                  24
##########                          Grid_Score:          -24.185696
##########                     Grid_vdw_energy:          -23.299953
##########                      Grid_es_energy:           -0.885742
##########           Internal_energy_repulsive:           18.232338

@<TRIPOS>MOLECULE
ZINC001708427409
 58 60 1 0 0
SMALL
USER_CHARGES


@<TRIPOS>ATOM
      1 C1        -11.7587    2.6482   51.8520 C.3     1  ZINC001708427409   -0.1500
      2 C2        -11.8410    1.4662   52.8199 C.3     1  ZINC001708427409   -0.1200
      3 C3        -10.4294    1.0503   53.2382 C.3     1  ZINC001708427409    0.0000
      4 H4         -9.8019    1.9367   53.3311 H       1  ZINC001708427409    0.0800
      5 C5         -9.8385    0.1158   52.1805 C.3     1  ZINC001708427409   -0.1400
      6 C6        -10.4882    0.3354   54.5635 C.2     1  ZINC001708427409    0.1800
      7 N7        -10.8857   -0.8893   54.7634 N.2     1  ZINC001708427409   -0.2800
      8 N8        -10.8077   -1.1795   56.0130 N.2     1  ZINC001708427409   -0.3200
      9 C9        -10.3525   -0.1471   56.6829 C.2     1  ZINC001708427409    0.3600
     10 N10       -10.1343   -0.0834   58.0500 N.3     1  ZINC001708427409   -0.4200
     11 C11        -9.2755   -1.2112   58.5066 C.3     1  ZINC001708427409    0.0400
     12 C12        -9.5778   -1.3510   60.0148 C.3     1  ZINC001708427409   -0.0900
     13 H13        -8.8207   -0.8320   60.6024 H       1  ZINC001708427409    0.0900
     14 C14        -9.6366   -2.8278   60.4104 C.3     1  ZINC001708427409   -0.1500
     15 C15       -10.9648   -0.6822   60.2106 C.3     1  ZINC001708427409   -0.0800
     16 H16       -11.6760   -1.3764   60.6579 H       1  ZINC001708427409    0.0900
     17 C17       -10.7531    0.5385   61.1067 C.3     1  ZINC001708427409   -0.1100
     18 C18       -12.0036    1.4172   61.0867 C.3     1  ZINC001708427409   -0.1200
     19 C19       -12.1792    1.9770   59.6768 C.3     1  ZINC001708427409   -0.1100
     20 C20       -12.3495    0.8551   58.6728 C.3     1  ZINC001708427409   -0.1000
     21 C21       -11.3927   -0.2934   58.7979 C.3     1  ZINC001708427409    0.1000
     22 H22       -11.8758   -1.1631   58.3525 H       1  ZINC001708427409    0.0600
     23 N23       -10.1287    0.8497   55.7785 N.pl3   1  ZINC001708427409   -0.4700
     24 C24        -9.6186    2.1953   56.0533 C.3     1  ZINC001708427409    0.0800
     25 C25        -8.0932    2.1499   56.1627 C.3     1  ZINC001708427409    0.1200
     26 C26        -7.4787    2.2458   54.7648 C.3     1  ZINC001708427409   -0.1800
     27 C27        -7.6078    3.3242   57.0148 C.3     1  ZINC001708427409   -0.1500
     28 O28        -7.6958    0.9211   56.7745 O.3     1  ZINC001708427409   -0.5400
     29 H29       -11.1895    2.3563   50.9695 H       1  ZINC001708427409    0.0600
     30 H30       -12.7645    2.9445   51.5539 H       1  ZINC001708427409    0.0600
     31 H31       -11.2636    3.4860   52.3429 H       1  ZINC001708427409    0.0500
     32 H32       -12.4103    1.7581   53.7024 H       1  ZINC001708427409    0.0700
     33 H33       -12.3361    0.6284   52.3289 H       1  ZINC001708427409    0.0800
     34 H34        -9.7959    0.6328   51.2219 H       1  ZINC001708427409    0.0700
     35 H35        -8.8328   -0.1805   52.4785 H       1  ZINC001708427409    0.0500
     36 H36       -10.4659   -0.7707   52.0877 H       1  ZINC001708427409    0.0700
     37 H37        -9.5408   -2.1278   57.9798 H       1  ZINC001708427409    0.0600
     38 H38        -8.2230   -0.9740   58.3509 H       1  ZINC001708427409    0.0800
     39 H39        -8.6703   -3.2941   60.2187 H       1  ZINC001708427409    0.0600
     40 H40        -9.8760   -2.9106   61.4706 H       1  ZINC001708427409    0.0600
     41 H41       -10.4055   -3.3307   59.8240 H       1  ZINC001708427409    0.0600
     42 H42       -10.5577    0.2094   62.1273 H       1  ZINC001708427409    0.0600
     43 H43        -9.9010    1.1123   60.7423 H       1  ZINC001708427409    0.0700
     44 H44       -12.8751    0.8202   61.3549 H       1  ZINC001708427409    0.0600
     45 H45       -11.8859    2.2377   61.7945 H       1  ZINC001708427409    0.0600
     46 H46       -13.0605    2.6178   59.6521 H       1  ZINC001708427409    0.0600
     47 H47       -11.3006    2.5653   59.4120 H       1  ZINC001708427409    0.0600
     48 H48       -13.3592    0.4570   58.7740 H       1  ZINC001708427409    0.0600
     49 H49       -12.2524    1.2753   57.6718 H       1  ZINC001708427409    0.0700
     50 H50        -9.9050    2.8651   55.2425 H       1  ZINC001708427409    0.0900
     51 H51       -10.0395    2.5589   56.9908 H       1  ZINC001708427409    0.1000
     52 H52        -7.7817    3.1831   54.2982 H       1  ZINC001708427409    0.0700
     53 H53        -6.3918    2.2134   54.8427 H       1  ZINC001708427409    0.0700
     54 H54        -7.8244    1.4092   54.1577 H       1  ZINC001708427409    0.0600
     55 H55        -8.1089    3.3025   57.9826 H       1  ZINC001708427409    0.0700
     56 H56        -6.5305    3.2459   57.1616 H       1  ZINC001708427409    0.0700
     57 H57        -7.8382    4.2611   56.5075 H       1  ZINC001708427409    0.0700
     58 H58        -8.0228    0.1321   56.3209 H       1  ZINC001708427409    0.3800
@<TRIPOS>BOND
     1     1     2    1
     2     1    29    1
     3     1    30    1
     4     1    31    1
     5     2     3    1
     6     2    32    1
     7     2    33    1
     8     3     4    1
     9     3     5    1
    10     3     6    1
    11     5    34    1
    12     5    35    1
    13     5    36    1
    14     6    23    1
    15     6     7    2
    16     7     8    1
    17     8     9    2
    18     9    10    1
    19     9    23    1
    20    10    21    1
    21    10    11    1
    22    11    12    1
    23    11    37    1
    24    11    38    1
    25    12    13    1
    26    12    14    1
    27    12    15    1
    28    14    39    1
    29    14    40    1
    30    14    41    1
    31    15    16    1
    32    15    21    1
    33    15    17    1
    34    17    18    1
    35    17    42    1
    36    17    43    1
    37    18    19    1
    38    18    44    1
    39    18    45    1
    40    19    20    1
    41    19    46    1
    42    19    47    1
    43    20    21    1
    44    20    48    1
    45    20    49    1
    46    21    22    1
    47    23    24    1
    48    24    25    1
    49    24    50    1
    50    24    51    1
    51    25    26    1
    52    25    27    1
    53    25    28    1
    54    26    52    1
    55    26    53    1
    56    26    54    1
    57    27    55    1
    58    27    56    1
    59    27    57    1
    60    28    58    1
@<TRIPOS>SUBSTRUCTURE
     1 ZINC001708427409        1 TEMP              0 ****  ****    0 ROOT


##########                                Name:    ZINC000430767928
##########                DOCK_Rotatable_Bonds:                   4
##########                         Heavy_Atoms:                  25
##########                    Molecular_Weight:             358.505
##########                DOCK_Rotatable_Bonds:                   4
##########                       Formal_Charge:          -0.0100002
##########                     HBond_Acceptors:                   5
##########                        HBond_Donors:                   0
##########                         Heavy_Atoms:                  25
##########                          Grid_Score:          -24.138567
##########                     Grid_vdw_energy:          -24.851934
##########                      Grid_es_energy:            0.713368
##########           Internal_energy_repulsive:           14.544527

@<TRIPOS>MOLECULE
ZINC000430767928
 51 55 1 0 0
SMALL
USER_CHARGES


@<TRIPOS>ATOM
      1 O1         -8.5822   -1.3957   61.9211 O.2     1  ZINC000430767928   -0.4600
      2 C2         -9.7874   -1.3855   62.0515 C.2     1  ZINC000430767928    0.5300
      3 C3        -10.7778   -2.3787   61.4932 C.3     1  ZINC000430767928    0.0400
      4 H4        -10.7352   -3.3457   61.9946 H       1  ZINC000430767928    0.1400
      5 C5        -10.6610   -2.4943   59.9594 C.3     1  ZINC000430767928   -0.1100
      6 C6        -12.1191   -2.8099   59.5384 C.3     1  ZINC000430767928   -0.1000
      7 H7        -12.2526   -3.8840   59.4099 H       1  ZINC000430767928    0.1000
      8 C8        -12.4709   -2.0725   58.2447 C.3     1  ZINC000430767928   -0.0800
      9 C9        -11.4384   -2.4110   57.1676 C.3     1  ZINC000430767928   -0.1100
     10 C10       -11.7903   -1.6735   55.8741 C.3     1  ZINC000430767928   -0.1200
     11 C11       -13.1800   -2.1060   55.4023 C.3     1  ZINC000430767928   -0.1200
     12 C12       -14.2125   -1.7675   56.4794 C.3     1  ZINC000430767928   -0.1200
     13 C13       -13.8606   -2.5050   57.7729 C.3     1  ZINC000430767928   -0.1200
     14 C14       -12.9892   -2.2962   60.7060 C.3     1  ZINC000430767928    0.1600
     15 N15       -12.0781   -1.6765   61.6828 N.am    1  ZINC000430767928   -0.6400
     16 C16       -11.8512   -0.7488   62.6182 C.2     1  ZINC000430767928    0.7400
     17 O17       -12.7233   -0.2030   63.2654 O.2     1  ZINC000430767928   -0.5100
     18 N18       -10.5310   -0.4857   62.7328 N.am    1  ZINC000430767928   -0.5800
     19 C19        -9.9749    0.6369   63.4923 C.3     1  ZINC000430767928    0.2600
     20 H20        -8.9086    0.7240   63.2837 H       1  ZINC000430767928    0.1200
     21 C21       -10.6714    1.9107   63.0883 C.2     1  ZINC000430767928   -0.2100
     22 C22       -11.1050    2.8503   63.9300 C.2     1  ZINC000430767928   -0.1200
     23 C23       -11.7163    3.9363   63.3273 C.2     1  ZINC000430767928   -0.1400
     24 C24       -11.7792    3.8784   61.9962 C.2     1  ZINC000430767928   -0.2300
     25 S25       -11.0303    2.3895   61.4343 S.3     1  ZINC000430767928    0.1700
     26 C26       -10.1839    0.3937   64.9883 C.3     1  ZINC000430767928   -0.1700
     27 C27        -9.1138   -0.4105   65.7295 C.3     1  ZINC000430767928   -0.1700
     28 C28        -9.2326    1.0978   65.9580 C.3     1  ZINC000430767928   -0.1600
     29 H29       -10.3271   -1.5525   59.5241 H       1  ZINC000430767928    0.0800
     30 H30        -9.9925   -3.3094   59.6820 H       1  ZINC000430767928    0.1000
     31 H31       -12.4672   -0.9977   58.4267 H       1  ZINC000430767928    0.0700
     32 H32       -10.4483   -2.1028   57.5038 H       1  ZINC000430767928    0.0600
     33 H33       -11.4422   -3.4857   56.9857 H       1  ZINC000430767928    0.0700
     34 H34       -11.7865   -0.5988   56.0561 H       1  ZINC000430767928    0.0600
     35 H35       -11.0546   -1.9147   55.1068 H       1  ZINC000430767928    0.0600
     36 H36       -13.4306   -1.5807   54.4808 H       1  ZINC000430767928    0.0600
     37 H37       -13.1837   -3.1807   55.2204 H       1  ZINC000430767928    0.0600
     38 H38       -14.2088   -0.6928   56.6614 H       1  ZINC000430767928    0.0600
     39 H39       -15.2025   -2.0756   56.1433 H       1  ZINC000430767928    0.0600
     40 H40       -13.8644   -3.5797   57.5911 H       1  ZINC000430767928    0.0700
     41 H41       -14.5962   -2.2637   58.5403 H       1  ZINC000430767928    0.0600
     42 H42       -13.7086   -1.5632   60.3409 H       1  ZINC000430767928    0.0900
     43 H43       -13.5108   -3.1292   61.1772 H       1  ZINC000430767928    0.0800
     44 H44       -10.9880    2.7699   65.0006 H       1  ZINC000430767928    0.1400
     45 H45       -12.1125    4.7671   63.8921 H       1  ZINC000430767928    0.1400
     46 H46       -12.2196    4.6323   61.3604 H       1  ZINC000430767928    0.1600
     47 H47       -11.2193    0.2648   65.3036 H       1  ZINC000430767928    0.1200
     48 H48        -9.4452   -1.0688   66.5325 H       1  ZINC000430767928    0.1000
     49 H49        -8.2611   -0.7662   65.1513 H       1  ZINC000430767928    0.1000
     50 H50        -8.4580    1.7342   65.5302 H       1  ZINC000430767928    0.1000
     51 H51        -9.6421    1.4316   66.9115 H       1  ZINC000430767928    0.1000
@<TRIPOS>BOND
     1     1     2    2
     2     2    18   am
     3     2     3    1
     4     3     4    1
     5     3    15    1
     6     3     5    1
     7     5     6    1
     8     5    29    1
     9     5    30    1
    10     6     7    1
    11     6     8    1
    12     6    14    1
    13     8    13    1
    14     8     9    1
    15     8    31    1
    16     9    10    1
    17     9    32    1
    18     9    33    1
    19    10    11    1
    20    10    34    1
    21    10    35    1
    22    11    12    1
    23    11    36    1
    24    11    37    1
    25    12    13    1
    26    12    38    1
    27    12    39    1
    28    13    40    1
    29    13    41    1
    30    14    15    1
    31    14    42    1
    32    14    43    1
    33    15    16   am
    34    16    17    2
    35    16    18   am
    36    18    19    1
    37    19    20    1
    38    19    21    1
    39    19    26    1
    40    21    25    1
    41    21    22    2
    42    22    23    1
    43    22    44    1
    44    23    24    2
    45    23    45    1
    46    24    25    1
    47    24    46    1
    48    26    28    1
    49    26    27    1
    50    26    47    1
    51    27    28    1
    52    27    48    1
    53    27    49    1
    54    28    50    1
    55    28    51    1
@<TRIPOS>SUBSTRUCTURE
     1 ZINC000430767928        1 TEMP              0 ****  ****    0 ROOT


##########                                Name:    ZINC000154446008
##########                DOCK_Rotatable_Bonds:                   5
##########                         Heavy_Atoms:                  24
##########                    Molecular_Weight:              349.41
##########                DOCK_Rotatable_Bonds:                   5
##########                       Formal_Charge:          -0.0199999
##########                     HBond_Acceptors:                   8
##########                        HBond_Donors:                   0
##########                         Heavy_Atoms:                  24
##########                          Grid_Score:          -24.107622
##########                     Grid_vdw_energy:          -24.647524
##########                      Grid_es_energy:            0.539902
##########           Internal_energy_repulsive:           15.018942

@<TRIPOS>MOLECULE
ZINC000154446008
 43 45 1 0 0
SMALL
USER_CHARGES


@<TRIPOS>ATOM
      1 O1        -16.3924   -3.5679   57.8605 O.2     1  ZINC000154446008   -0.5000
      2 C2        -15.4492   -3.6291   57.0939 C.2     1  ZINC000154446008    0.5900
      3 C3        -15.5367   -4.4595   55.8891 C.2     1  ZINC000154446008   -0.2300
      4 C4        -14.9309   -5.6722   55.7165 C.2     1  ZINC000154446008   -0.0600
      5 C5        -15.1813   -6.2350   54.4875 C.2     1  ZINC000154446008   -0.0500
      6 C6        -15.9647   -5.5102   53.6803 C.2     1  ZINC000154446008   -0.2100
      7 N7        -16.3668   -5.9167   52.3148 N.pl3   1  ZINC000154446008    0.0500
      8 O8        -17.1949   -5.2646   51.7044 O.2     1  ZINC000154446008   -0.1300
      9 O9        -15.8696   -6.9032   51.8019 O.2     1  ZINC000154446008   -0.1500
     10 S10       -16.4441   -4.0583   54.4375 S.3     1  ZINC000154446008    0.3500
     11 N11       -14.3264   -2.9290   57.3498 N.am    1  ZINC000154446008   -0.6100
     12 C12       -14.2224   -2.0972   58.5569 C.3     1  ZINC000154446008    0.0800
     13 C13       -12.9779   -2.5276   59.3430 C.3     1  ZINC000154446008    0.0900
     14 N14       -11.8354   -2.5827   58.4203 N.am    1  ZINC000154446008   -0.6100
     15 C15       -10.7122   -1.8833   58.6767 C.2     1  ZINC000154446008    0.5500
     16 O16        -9.7732   -1.9367   57.9056 O.2     1  ZINC000154446008   -0.5300
     17 C17       -10.6221   -1.0552   59.8892 C.2     1  ZINC000154446008   -0.1500
     18 C18       -10.5217   -1.6653   61.0503 C.2     1  ZINC000154446008   -0.1100
     19 C19       -10.4313   -0.9477   62.3655 C.3     1  ZINC000154446008   -0.1000
     20 C20       -10.0471    0.5163   62.1412 C.3     1  ZINC000154446008   -0.1200
     21 C21       -10.9726    1.1037   61.0686 C.3     1  ZINC000154446008   -0.1200
     22 C22       -10.6439    0.4370   59.7295 C.3     1  ZINC000154446008   -0.0700
     23 C23       -11.9393   -3.4146   57.2132 C.3     1  ZINC000154446008    0.1000
     24 C24       -13.1817   -2.9885   56.4299 C.3     1  ZINC000154446008    0.1000
     25 H25       -14.3165   -6.1416   56.4705 H       1  ZINC000154446008    0.1800
     26 H26       -14.7752   -7.1920   54.1948 H       1  ZINC000154446008    0.1800
     27 H27       -14.1308   -1.0490   58.2721 H       1  ZINC000154446008    0.0900
     28 H28       -15.1105   -2.2349   59.1737 H       1  ZINC000154446008    0.0900
     29 H29       -12.7757   -1.8042   60.1329 H       1  ZINC000154446008    0.1100
     30 H30       -13.1435   -3.5127   59.7795 H       1  ZINC000154446008    0.0800
     31 H31       -10.5036   -2.7452   61.0577 H       1  ZINC000154446008    0.1100
     32 H32       -11.3964   -0.9948   62.8698 H       1  ZINC000154446008    0.0900
     33 H33        -9.6765   -1.4281   62.9881 H       1  ZINC000154446008    0.0800
     34 H34       -10.1651    1.0725   63.0712 H       1  ZINC000154446008    0.0700
     35 H35        -9.0121    0.5758   61.8045 H       1  ZINC000154446008    0.0700
     36 H36       -12.0113    0.9075   61.3338 H       1  ZINC000154446008    0.0700
     37 H37       -10.8080    2.1785   60.9916 H       1  ZINC000154446008    0.0700
     38 H38        -9.6702    0.7832   59.3829 H       1  ZINC000154446008    0.0800
     39 H39       -11.4032    0.7068   58.9955 H       1  ZINC000154446008    0.0700
     40 H40       -11.0513   -3.2768   56.5964 H       1  ZINC000154446008    0.1100
     41 H41       -12.0310   -4.4627   57.4980 H       1  ZINC000154446008    0.0800
     42 H42       -13.3828   -3.7127   55.6405 H       1  ZINC000154446008    0.1100
     43 H43       -13.0188   -2.0033   55.9930 H       1  ZINC000154446008    0.0800
@<TRIPOS>BOND
     1     1     2    2
     2     2     3    1
     3     2    11   am
     4     3    10    1
     5     3     4    2
     6     4     5    1
     7     4    25    1
     8     5     6    2
     9     5    26    1
    10     6     7    1
    11     6    10    1
    12     7     8    2
    13     7     9    2
    14    11    24    1
    15    11    12    1
    16    12    13    1
    17    12    27    1
    18    12    28    1
    19    13    14    1
    20    13    29    1
    21    13    30    1
    22    14    15   am
    23    14    23    1
    24    15    16    2
    25    15    17    1
    26    17    22    1
    27    17    18    2
    28    18    19    1
    29    18    31    1
    30    19    20    1
    31    19    32    1
    32    19    33    1
    33    20    21    1
    34    20    34    1
    35    20    35    1
    36    21    22    1
    37    21    36    1
    38    21    37    1
    39    22    38    1
    40    22    39    1
    41    23    24    1
    42    23    40    1
    43    23    41    1
    44    24    42    1
    45    24    43    1
@<TRIPOS>SUBSTRUCTURE
     1 ZINC000154446008        1 TEMP              0 ****  ****    0 ROOT


##########                                Name:    ZINC000176150038
##########                DOCK_Rotatable_Bonds:                   4
##########                         Heavy_Atoms:                  23
##########                    Molecular_Weight:             333.712
##########                DOCK_Rotatable_Bonds:                   4
##########                       Formal_Charge:        -2.23517e-07
##########                     HBond_Acceptors:                  10
##########                        HBond_Donors:                   1
##########                         Heavy_Atoms:                  23
##########                          Grid_Score:          -24.072773
##########                     Grid_vdw_energy:          -22.692278
##########                      Grid_es_energy:           -1.380495
##########           Internal_energy_repulsive:            5.573196

@<TRIPOS>MOLECULE
ZINC000176150038
 32 34 1 0 0
SMALL
USER_CHARGES


@<TRIPOS>ATOM
      1 C1        -11.4667    2.9550   62.8208 C.3     1  ZINC000176150038   -0.0900
      2 C2        -11.1591    2.2758   64.1305 C.2     1  ZINC000176150038    0.2600
      3 N3        -11.2137    2.8207   65.3178 N.2     1  ZINC000176150038   -0.3300
      4 N4        -10.8917    1.9679   66.2224 N.2     1  ZINC000176150038   -0.0300
      5 N5        -10.6118    0.8307   65.6830 N.2     1  ZINC000176150038   -0.0700
      6 N6        -10.7815    0.9898   64.2963 N.pl3   1  ZINC000176150038   -0.3300
      7 C7        -10.5914    0.0223   63.2981 C.ar    1  ZINC000176150038    0.1400
      8 C8         -9.3079   -0.2992   62.8782 C.ar    1  ZINC000176150038   -0.1000
      9 C9         -9.1186   -1.2522   61.8953 C.ar    1  ZINC000176150038   -0.1100
     10 C10       -10.2069   -1.8886   61.3271 C.ar    1  ZINC000176150038    0.1000
     11 F11       -10.0190   -2.8203   60.3669 F       1  ZINC000176150038   -0.1200
     12 C12       -11.4956   -1.5701   61.7445 C.ar    1  ZINC000176150038    0.1300
     13 N13       -12.5974   -2.2136   61.1700 N.am    1  ZINC000176150038   -0.6500
     14 C14       -13.5884   -1.4875   60.6161 C.2     1  ZINC000176150038    0.5700
     15 O15       -13.5252   -0.2740   60.6153 O.2     1  ZINC000176150038   -0.4800
     16 C16       -14.7563   -2.1696   60.0071 C.ar    1  ZINC000176150038    0.1400
     17 N17       -14.8914   -2.2292   58.6841 N.ar    1  ZINC000176150038   -0.4800
     18 C18       -15.9255   -2.8336   58.1402 C.ar    1  ZINC000176150038    0.3000
     19 N19       -16.8655   -3.4019   58.8702 N.ar    1  ZINC000176150038   -0.4800
     20 C20       -16.8060   -3.3871   60.1905 C.ar    1  ZINC000176150038    0.1700
     21 C21       -15.7303   -2.7654   60.8120 C.ar    1  ZINC000176150038   -0.1000
     22 Cl22      -15.6061   -2.7194   62.5430 Cl      1  ZINC000176150038    0.0100
     23 C23       -11.6860   -0.6175   62.7345 C.ar    1  ZINC000176150038   -0.0800
     24 H24       -12.5264    2.8406   62.5924 H       1  ZINC000176150038    0.1100
     25 H25       -11.2234    4.0149   62.8952 H       1  ZINC000176150038    0.1100
     26 H26       -10.8729    2.5007   62.0277 H       1  ZINC000176150038    0.0900
     27 H27        -8.4561    0.1966   63.3198 H       1  ZINC000176150038    0.1500
     28 H28        -8.1190   -1.5002   61.5701 H       1  ZINC000176150038    0.1600
     29 H29       -12.6478   -3.1823   61.1706 H       1  ZINC000176150038    0.4300
     30 H30       -16.0073   -2.8651   57.0637 H       1  ZINC000176150038    0.2200
     31 H31       -17.5815   -3.8556   60.7784 H       1  ZINC000176150038    0.1900
     32 H32       -12.6851   -0.3683   63.0605 H       1  ZINC000176150038    0.1700
@<TRIPOS>BOND
     1     1     2    1
     2     1    24    1
     3     1    25    1
     4     1    26    1
     5     2     6    1
     6     2     3    2
     7     3     4    1
     8     4     5    2
     9     5     6    1
    10     6     7    1
    11     7    23   ar
    12     7     8   ar
    13     8     9   ar
    14     8    27    1
    15     9    10   ar
    16     9    28    1
    17    10    11    1
    18    10    12   ar
    19    12    13    1
    20    12    23   ar
    21    13    14   am
    22    13    29    1
    23    14    15    2
    24    14    16    1
    25    16    21   ar
    26    16    17   ar
    27    17    18   ar
    28    18    19   ar
    29    18    30    1
    30    19    20   ar
    31    20    21   ar
    32    20    31    1
    33    21    22    1
    34    23    32    1
@<TRIPOS>SUBSTRUCTURE
     1 ZINC000176150038        1 TEMP              0 ****  ****    0 ROOT


##########                                Name:    ZINC000002873519
##########                DOCK_Rotatable_Bonds:                   5
##########                         Heavy_Atoms:                  25
##########                    Molecular_Weight:             375.207
##########                DOCK_Rotatable_Bonds:                   5
##########                       Formal_Charge:               -0.02
##########                     HBond_Acceptors:                   6
##########                        HBond_Donors:                   0
##########                         Heavy_Atoms:                  25
##########                          Grid_Score:          -23.989462
##########                     Grid_vdw_energy:          -23.373285
##########                      Grid_es_energy:           -0.616176
##########           Internal_energy_repulsive:            6.388281

@<TRIPOS>MOLECULE
ZINC000002873519
 37 39 1 0 0
SMALL
USER_CHARGES


@<TRIPOS>ATOM
      1 C1         -6.9962    1.8236   54.3699 C.3     1  ZINC000002873519   -0.1500
      2 C2         -6.2407    1.9267   53.0699 C.2     1  ZINC000002873519    0.4500
      3 O3         -5.9765    0.9277   52.4438 O.2     1  ZINC000002873519   -0.4800
      4 O4         -5.8613    3.1290   52.6074 O.3     1  ZINC000002873519   -0.2900
      5 C5         -4.5462    3.4454   52.7196 C.ar    1  ZINC000002873519    0.1200
      6 C6         -3.6280    2.9331   51.8182 C.ar    1  ZINC000002873519   -0.1100
      7 C7         -2.2889    3.2559   51.9322 C.ar    1  ZINC000002873519   -0.0800
      8 C8         -1.8512    4.0936   52.9472 C.ar    1  ZINC000002873519   -0.0400
      9 Cl9        -0.1656    4.4885   53.0746 Cl      1  ZINC000002873519   -0.0500
     10 C10        -2.7482    4.6144   53.8549 C.ar    1  ZINC000002873519   -0.0800
     11 C11        -4.1100    4.3001   53.7485 C.ar    1  ZINC000002873519   -0.0700
     12 C12        -5.0700    4.8486   54.7073 C.2     1  ZINC000002873519    0.0400
     13 C13        -4.9189    4.5964   56.0568 C.2     1  ZINC000002873519   -0.1900
     14 C14        -3.8618    3.8107   56.7166 C.2     1  ZINC000002873519   -0.2000
     15 C15        -4.1296    3.8436   58.0390 C.2     1  ZINC000002873519    0.1200
     16 C16        -3.3111    3.1776   59.0717 C.ar    1  ZINC000002873519   -0.0400
     17 C17        -3.4737    3.5110   60.4183 C.ar    1  ZINC000002873519   -0.0800
     18 C18        -2.7061    2.8853   61.3780 C.ar    1  ZINC000002873519   -0.1100
     19 C19        -1.7753    1.9284   61.0090 C.ar    1  ZINC000002873519   -0.0200
     20 Cl20       -0.8129    1.1454   62.2232 Cl      1  ZINC000002873519   -0.0600
     21 C21        -1.6093    1.5933   59.6755 C.ar    1  ZINC000002873519   -0.1100
     22 C22        -2.3751    2.2072   58.7066 C.ar    1  ZINC000002873519   -0.0800
     23 O23        -5.2402    4.5633   58.2958 O.3     1  ZINC000002873519   -0.2600
     24 C24        -5.7759    5.0581   57.1655 C.2     1  ZINC000002873519    0.5200
     25 O25        -6.7763    5.7447   57.0744 O.2     1  ZINC000002873519   -0.4200
     26 H26        -6.2899    1.7144   55.1928 H       1  ZINC000002873519    0.1100
     27 H27        -7.5898    2.7257   54.5177 H       1  ZINC000002873519    0.1000
     28 H28        -7.6554    0.9560   54.3391 H       1  ZINC000002873519    0.1100
     29 H29        -3.9590    2.2797   51.0246 H       1  ZINC000002873519    0.1500
     30 H30        -1.5783    2.8526   51.2261 H       1  ZINC000002873519    0.1500
     31 H31        -2.4031    5.2660   54.6440 H       1  ZINC000002873519    0.1500
     32 H32        -5.8965    5.4506   54.3597 H       1  ZINC000002873519    0.1500
     33 H33        -3.0358    3.3070   56.2368 H       1  ZINC000002873519    0.1700
     34 H34        -4.1987    4.2575   60.7073 H       1  ZINC000002873519    0.1400
     35 H35        -2.8308    3.1422   62.4196 H       1  ZINC000002873519    0.1400
     36 H36        -0.8815    0.8466   59.3941 H       1  ZINC000002873519    0.1400
     37 H37        -2.2447    1.9450   57.6671 H       1  ZINC000002873519    0.1400
@<TRIPOS>BOND
     1     1     2    1
     2     1    26    1
     3     1    27    1
     4     1    28    1
     5     2     3    2
     6     2     4    1
     7     4     5    1
     8     5    11   ar
     9     5     6   ar
    10     6     7   ar
    11     6    29    1
    12     7     8   ar
    13     7    30    1
    14     8     9    1
    15     8    10   ar
    16    10    11   ar
    17    10    31    1
    18    11    12    1
    19    12    13    2
    20    12    32    1
    21    13    24    1
    22    13    14    1
    23    14    15    2
    24    14    33    1
    25    15    16    1
    26    15    23    1
    27    16    22   ar
    28    16    17   ar
    29    17    18   ar
    30    17    34    1
    31    18    19   ar
    32    18    35    1
    33    19    20    1
    34    19    21   ar
    35    21    22   ar
    36    21    36    1
    37    22    37    1
    38    23    24    1
    39    24    25    2
@<TRIPOS>SUBSTRUCTURE
     1 ZINC000002873519        1 TEMP              0 ****  ****    0 ROOT


##########                                Name:    ZINC000422507946
##########                DOCK_Rotatable_Bonds:                   7
##########                         Heavy_Atoms:                  25
##########                    Molecular_Weight:             364.484
##########                DOCK_Rotatable_Bonds:                   7
##########                       Formal_Charge:          0.00999952
##########                     HBond_Acceptors:                   6
##########                        HBond_Donors:                   1
##########                         Heavy_Atoms:                  25
##########                          Grid_Score:          -23.971724
##########                     Grid_vdw_energy:          -22.405853
##########                      Grid_es_energy:           -1.565870
##########           Internal_energy_repulsive:           31.843056

@<TRIPOS>MOLECULE
ZINC000422507946
 50 52 1 0 0
SMALL
USER_CHARGES


@<TRIPOS>ATOM
      1 C1          6.2279    0.5947   53.7865 C.3     1  ZINC000422507946   -0.1400
      2 C2          4.7798    1.0548   53.6073 C.3     1  ZINC000422507946   -0.0400
      3 H3          4.1202    0.4993   54.2740 H       1  ZINC000422507946    0.1100
      4 C4          4.3364    0.8760   52.1404 C.3     1  ZINC000422507946   -0.1400
      5 C5          3.3490    1.9987   51.7773 C.3     1  ZINC000422507946    0.1400
      6 H6          2.3933    1.8289   52.2731 H       1  ZINC000422507946    0.1100
      7 N7          3.1578    2.0469   50.3256 N.am    1  ZINC000422507946   -0.6900
      8 C8          2.2403    2.8788   49.7940 C.2     1  ZINC000422507946    0.5100
      9 O9          1.5737    3.5890   50.5176 O.2     1  ZINC000422507946   -0.5000
     10 C10         2.0441    2.9266   48.3132 C.2     1  ZINC000422507946    0.5100
     11 O11         2.8414    3.5167   47.6142 O.2     1  ZINC000422507946   -0.5200
     12 N12         0.9815    2.3142   47.7542 N.am    1  ZINC000422507946   -0.5700
     13 C13         0.0191    1.6017   48.5983 C.3     1  ZINC000422507946    0.1400
     14 C14        -0.9616    2.5856   49.1825 C.ar    1  ZINC000422507946   -0.0800
     15 C15        -1.9906    2.1386   49.9899 C.ar    1  ZINC000422507946   -0.1100
     16 C16        -2.8911    3.0401   50.5267 C.ar    1  ZINC000422507946   -0.0900
     17 C17        -2.7631    4.3892   50.2566 C.ar    1  ZINC000422507946   -0.1500
     18 C18        -1.7323    4.8382   49.4482 C.ar    1  ZINC000422507946    0.1000
     19 F19        -1.6063    6.1569   49.1834 F       1  ZINC000422507946   -0.1400
     20 C20        -0.8282    3.9351   48.9156 C.ar    1  ZINC000422507946   -0.1500
     21 C21         0.7890    2.3610   46.3027 C.3     1  ZINC000422507946    0.1400
     22 C22         1.3354    1.0717   45.6554 C.3     1  ZINC000422507946   -0.1200
     23 C23         0.0917    0.1586   45.5188 C.3     1  ZINC000422507946   -0.1300
     24 C24        -1.0264    1.1593   45.1347 C.3     1  ZINC000422507946   -0.1200
     25 C25        -0.7127    2.4166   45.9716 C.3     1  ZINC000422507946   -0.1600
     26 C26         3.9751    3.3282   52.2746 C.3     1  ZINC000422507946   -0.0900
     27 S27         4.6379    2.8530   53.9214 S.3     1  ZINC000422507946   -0.2700
     28 H28         6.5346    0.7542   54.8203 H       1  ZINC000422507946    0.0700
     29 H29         6.3052   -0.4651   53.5440 H       1  ZINC000422507946    0.0700
     30 H30         6.8759    1.1674   53.1229 H       1  ZINC000422507946    0.0700
     31 H31         5.2066    0.9285   51.4862 H       1  ZINC000422507946    0.0900
     32 H32         3.8498   -0.0919   52.0207 H       1  ZINC000422507946    0.0900
     33 H33         3.6916    1.4800   49.7471 H       1  ZINC000422507946    0.4100
     34 H34        -0.5174    0.8674   47.9973 H       1  ZINC000422507946    0.1100
     35 H35         0.5487    1.0943   49.4045 H       1  ZINC000422507946    0.1000
     36 H36        -2.0915    1.0843   50.2013 H       1  ZINC000422507946    0.1400
     37 H37        -3.6948    2.6897   51.1571 H       1  ZINC000422507946    0.1300
     38 H38        -3.4670    5.0930   50.6755 H       1  ZINC000422507946    0.1400
     39 H39        -0.0237    4.2842   48.2853 H       1  ZINC000422507946    0.1400
     40 H40         1.2955    3.2320   45.8870 H       1  ZINC000422507946    0.1100
     41 H41         1.7599    1.2874   44.6748 H       1  ZINC000422507946    0.0800
     42 H42         2.0808    0.6070   46.3008 H       1  ZINC000422507946    0.0600
     43 H43         0.2385   -0.5784   44.7292 H       1  ZINC000422507946    0.0700
     44 H44        -0.1353   -0.3292   46.4667 H       1  ZINC000422507946    0.0600
     45 H45        -0.9834    1.3892   44.0702 H       1  ZINC000422507946    0.0700
     46 H46        -2.0047    0.7585   45.4003 H       1  ZINC000422507946    0.0700
     47 H47        -1.2982    2.4089   46.8910 H       1  ZINC000422507946    0.0900
     48 H48        -0.9348    3.3142   45.3947 H       1  ZINC000422507946    0.0800
     49 H49         4.7770    3.6517   51.6110 H       1  ZINC000422507946    0.1000
     50 H50         3.2143    4.1028   52.3722 H       1  ZINC000422507946    0.1100
@<TRIPOS>BOND
     1     1     2    1
     2     1    28    1
     3     1    29    1
     4     1    30    1
     5     2     3    1
     6     2    27    1
     7     2     4    1
     8     4     5    1
     9     4    31    1
    10     4    32    1
    11     5     6    1
    12     5     7    1
    13     5    26    1
    14     7     8   am
    15     7    33    1
    16     8     9    2
    17     8    10    1
    18    10    11    2
    19    10    12   am
    20    12    13    1
    21    12    21    1
    22    13    14    1
    23    13    34    1
    24    13    35    1
    25    14    20   ar
    26    14    15   ar
    27    15    16   ar
    28    15    36    1
    29    16    17   ar
    30    16    37    1
    31    17    18   ar
    32    17    38    1
    33    18    19    1
    34    18    20   ar
    35    20    39    1
    36    21    25    1
    37    21    22    1
    38    21    40    1
    39    22    23    1
    40    22    41    1
    41    22    42    1
    42    23    24    1
    43    23    43    1
    44    23    44    1
    45    24    25    1
    46    24    45    1
    47    24    46    1
    48    25    47    1
    49    25    48    1
    50    26    27    1
    51    26    49    1
    52    26    50    1
@<TRIPOS>SUBSTRUCTURE
     1 ZINC000422507946        1 TEMP              0 ****  ****    0 ROOT


##########                                Name:    ZINC000828026236
##########                DOCK_Rotatable_Bonds:                   1
##########                         Heavy_Atoms:                  19
##########                    Molecular_Weight:             383.045
##########                DOCK_Rotatable_Bonds:                   1
##########                       Formal_Charge:                   0
##########                     HBond_Acceptors:                   5
##########                        HBond_Donors:                   0
##########                         Heavy_Atoms:                  19
##########                          Grid_Score:          -23.832735
##########                     Grid_vdw_energy:          -24.216030
##########                      Grid_es_energy:            0.383296
##########           Internal_energy_repulsive:            2.464695

@<TRIPOS>MOLECULE
ZINC000828026236
 28 30 1 0 0
SMALL
USER_CHARGES


@<TRIPOS>ATOM
      1 N1          2.0332    3.0385   51.0401 N.1     1  ZINC000828026236   -0.3800
      2 C2          0.9137    3.1079   51.2198 C.1     1  ZINC000828026236    0.2600
      3 C3         -0.4976    3.1954   51.4461 C.ar    1  ZINC000828026236   -0.0500
      4 C4         -0.9961    3.7383   52.6356 C.ar    1  ZINC000828026236    0.0100
      5 C5         -2.3690    3.8002   52.8058 C.ar    1  ZINC000828026236   -0.1600
      6 Br6        -3.1008    4.5241   54.3922 Br      1  ZINC000828026236   -0.0100
      7 C7         -3.2013    3.3290   51.8059 C.ar    1  ZINC000828026236    0.1800
      8 N8         -2.7110    2.8207   50.6915 N.ar    1  ZINC000828026236   -0.5000
      9 C9         -1.4077    2.7430   50.4750 C.ar    1  ZINC000828026236    0.3600
     10 N10        -0.9379    2.2019   49.2904 N.3     1  ZINC000828026236   -0.4900
     11 C11        -1.0944    3.1509   48.1792 C.3     1  ZINC000828026236    0.0500
     12 C12        -0.2474    2.6923   46.9853 C.3     1  ZINC000828026236    0.1100
     13 N13        -0.5353    1.2775   46.7354 N.pl3   1  ZINC000828026236   -0.4400
     14 C14        -0.2646    0.5377   45.6262 C.2     1  ZINC000828026236   -0.0300
     15 Br15        0.5866    1.1380   44.0480 Br      1  ZINC000828026236    0.0200
     16 C16        -0.7222   -0.7087   45.8719 C.2     1  ZINC000828026236    0.0300
     17 N17        -1.2577   -0.7212   47.1045 N.2     1  ZINC000828026236   -0.4700
     18 C18        -1.1495    0.4617   47.6295 C.2     1  ZINC000828026236    0.2300
     19 C19        -1.6032    0.9212   48.9946 C.3     1  ZINC000828026236    0.1500
     20 H20        -0.3265    4.0996   53.4023 H       1  ZINC000828026236    0.1600
     21 H21        -4.2717    3.3778   51.9403 H       1  ZINC000828026236    0.1800
     22 H22        -2.1430    3.1948   47.8845 H       1  ZINC000828026236    0.0700
     23 H23        -0.7662    4.1402   48.4981 H       1  ZINC000828026236    0.1100
     24 H24        -0.5041    3.2808   46.1045 H       1  ZINC000828026236    0.1100
     25 H25         0.8107    2.8169   47.2156 H       1  ZINC000828026236    0.1000
     26 H26        -0.6676   -1.5491   45.1957 H       1  ZINC000828026236    0.1800
     27 H27        -1.3248    0.1800   49.7438 H       1  ZINC000828026236    0.1200
     28 H28        -2.6844    1.0589   48.9961 H       1  ZINC000828026236    0.1000
@<TRIPOS>BOND
     1     1     2    3
     2     2     3    1
     3     3     9   ar
     4     3     4   ar
     5     4     5   ar
     6     4    20    1
     7     5     6    1
     8     5     7   ar
     9     7     8   ar
    10     7    21    1
    11     8     9   ar
    12     9    10    1
    13    10    19    1
    14    10    11    1
    15    11    12    1
    16    11    22    1
    17    11    23    1
    18    12    13    1
    19    12    24    1
    20    12    25    1
    21    13    18    1
    22    13    14    1
    23    14    15    1
    24    14    16    2
    25    16    17    1
    26    16    26    1
    27    17    18    2
    28    18    19    1
    29    19    27    1
    30    19    28    1
@<TRIPOS>SUBSTRUCTURE
     1 ZINC000828026236        1 TEMP              0 ****  ****    0 ROOT


##########                                Name:    ZINC001456096501
##########                DOCK_Rotatable_Bonds:                   7
##########                         Heavy_Atoms:                  24
##########                    Molecular_Weight:             333.431
##########                DOCK_Rotatable_Bonds:                   7
##########                       Formal_Charge:          -0.0200003
##########                     HBond_Acceptors:                   6
##########                        HBond_Donors:                   0
##########                         Heavy_Atoms:                  24
##########                          Grid_Score:          -23.826851
##########                     Grid_vdw_energy:          -22.678062
##########                      Grid_es_energy:           -1.148788
##########           Internal_energy_repulsive:          132.220062

@<TRIPOS>MOLECULE
ZINC001456096501
 51 52 1 0 0
SMALL
USER_CHARGES


@<TRIPOS>ATOM
      1 C1        -13.0361    0.3065   59.8202 C.3     1  ZINC001456096501    0.0400
      2 O2        -12.7867   -0.8999   60.5444 O.3     1  ZINC001456096501   -0.2900
      3 C3        -11.5829   -1.4915   60.3576 C.ar    1  ZINC001456096501    0.3700
      4 N4        -10.6429   -1.3742   61.2799 N.ar    1  ZINC001456096501   -0.5400
      5 C5         -9.4569   -1.9342   61.1389 C.ar    1  ZINC001456096501    0.1600
      6 C6         -9.1432   -2.6731   60.0126 C.ar    1  ZINC001456096501   -0.2200
      7 C7        -10.0897   -2.8284   59.0151 C.ar    1  ZINC001456096501   -0.0200
      8 C8        -11.3427   -2.2299   59.1889 C.ar    1  ZINC001456096501   -0.2000
      9 C9        -12.3887   -2.3642   58.1572 C.2     1  ZINC001456096501    0.5900
     10 O10       -13.2539   -3.2101   58.2751 O.2     1  ZINC001456096501   -0.5100
     11 N11       -12.3852   -1.5489   57.0839 N.am    1  ZINC001456096501   -0.6200
     12 C12       -13.3628   -1.5733   55.9861 C.3     1  ZINC001456096501    0.1000
     13 C13       -12.9449   -0.4837   54.9763 C.3     1  ZINC001456096501   -0.1200
     14 C14       -11.4362   -0.2879   55.2807 C.3     1  ZINC001456096501   -0.1200
     15 H15       -10.8345   -1.0440   54.7762 H       1  ZINC001456096501    0.0900
     16 C16       -10.9775    1.1202   54.8964 C.3     1  ZINC001456096501    0.1200
     17 N17       -10.1689    1.0543   53.6764 N.am    1  ZINC001456096501   -0.6200
     18 C18       -10.8223    1.0187   52.3657 C.3     1  ZINC001456096501    0.0600
     19 C19        -8.8240    1.0267   53.7599 C.2     1  ZINC001456096501    0.5200
     20 O20        -8.2831    1.0561   54.8449 O.2     1  ZINC001456096501   -0.5300
     21 C21        -7.9925    0.9589   52.5050 C.3     1  ZINC001456096501   -0.0800
     22 C22        -8.1149   -0.4352   51.8866 C.3     1  ZINC001456096501   -0.1300
     23 C23        -8.4903    2.0054   51.5061 C.3     1  ZINC001456096501   -0.1500
     24 C24        -6.5277    1.2377   52.8481 C.3     1  ZINC001456096501   -0.1700
     25 C25       -11.4040   -0.4807   56.8196 C.3     1  ZINC001456096501    0.1200
     26 H26       -12.2951    1.0564   60.0970 H       1  ZINC001456096501    0.0600
     27 H27       -12.9701    0.1082   58.7503 H       1  ZINC001456096501    0.0600
     28 H28       -14.0333    0.6750   60.0605 H       1  ZINC001456096501    0.1000
     29 H29        -8.7175   -1.8132   61.9166 H       1  ZINC001456096501    0.1700
     30 H30        -8.1673   -3.1249   59.9122 H       1  ZINC001456096501    0.1500
     31 H31        -9.8682   -3.4005   58.1263 H       1  ZINC001456096501    0.1500
     32 H32       -13.3531   -2.5501   55.5027 H       1  ZINC001456096501    0.0700
     33 H33       -14.3592   -1.3584   56.3722 H       1  ZINC001456096501    0.0700
     34 H34       -13.0901   -0.8302   53.9531 H       1  ZINC001456096501    0.0900
     35 H35       -13.4973    0.4391   55.1541 H       1  ZINC001456096501    0.0800
     36 H36       -11.8489    1.7510   54.7211 H       1  ZINC001456096501    0.0800
     37 H37       -10.3807    1.5414   55.7055 H       1  ZINC001456096501    0.0900
     38 H38       -10.9139    2.0332   51.9776 H       1  ZINC001456096501    0.0600
     39 H39       -10.2255    0.4192   51.6783 H       1  ZINC001456096501    0.0900
     40 H40       -11.8139    0.5772   52.4659 H       1  ZINC001456096501    0.0700
     41 H41        -9.1584   -0.6339   51.6422 H       1  ZINC001456096501    0.0600
     42 H42        -7.5135   -0.4843   50.9790 H       1  ZINC001456096501    0.0600
     43 H43        -7.7603   -1.1807   52.5984 H       1  ZINC001456096501    0.0600
     44 H44        -8.5274    2.9812   51.9904 H       1  ZINC001456096501    0.0700
     45 H45        -7.8105    2.0477   50.6551 H       1  ZINC001456096501    0.0700
     46 H46        -9.4877    1.7329   51.1611 H       1  ZINC001456096501    0.0600
     47 H47        -6.1730    0.4921   53.5598 H       1  ZINC001456096501    0.0600
     48 H48        -5.9262    1.1886   51.9405 H       1  ZINC001456096501    0.0700
     49 H49        -6.4404    2.2309   53.2886 H       1  ZINC001456096501    0.0800
     50 H50       -11.6941    0.4412   57.3237 H       1  ZINC001456096501    0.0800
     51 H51       -10.4111   -0.7942   57.1420 H       1  ZINC001456096501    0.0700
@<TRIPOS>BOND
     1     1     2    1
     2     1    26    1
     3     1    27    1
     4     1    28    1
     5     2     3    1
     6     3     8   ar
     7     3     4   ar
     8     4     5   ar
     9     5     6   ar
    10     5    29    1
    11     6     7   ar
    12     6    30    1
    13     7     8   ar
    14     7    31    1
    15     8     9    1
    16     9    10    2
    17     9    11   am
    18    11    25    1
    19    11    12    1
    20    12    13    1
    21    12    32    1
    22    12    33    1
    23    13    14    1
    24    13    34    1
    25    13    35    1
    26    14    15    1
    27    14    16    1
    28    14    25    1
    29    16    17    1
    30    16    36    1
    31    16    37    1
    32    17    18    1
    33    17    19   am
    34    18    38    1
    35    18    39    1
    36    18    40    1
    37    19    20    2
    38    19    21    1
    39    21    22    1
    40    21    23    1
    41    21    24    1
    42    22    41    1
    43    22    42    1
    44    22    43    1
    45    23    44    1
    46    23    45    1
    47    23    46    1
    48    24    47    1
    49    24    48    1
    50    24    49    1
    51    25    50    1
    52    25    51    1
@<TRIPOS>SUBSTRUCTURE
     1 ZINC001456096501        1 TEMP              0 ****  ****    0 ROOT


##########                                Name:    ZINC000942661662
##########                DOCK_Rotatable_Bonds:                   6
##########                         Heavy_Atoms:                  25
##########                    Molecular_Weight:             343.426
##########                DOCK_Rotatable_Bonds:                   6
##########                       Formal_Charge:           0.0399997
##########                     HBond_Acceptors:                   6
##########                        HBond_Donors:                   1
##########                         Heavy_Atoms:                  25
##########                          Grid_Score:          -23.753927
##########                     Grid_vdw_energy:          -22.272305
##########                      Grid_es_energy:           -1.481622
##########           Internal_energy_repulsive:           24.036310

@<TRIPOS>MOLECULE
ZINC000942661662
 50 52 1 0 0
SMALL
USER_CHARGES


@<TRIPOS>ATOM
      1 C1         -8.7386    1.3853   56.6502 C.3     1  ZINC000942661662   -0.1700
      2 C2        -10.1180    1.1947   56.0163 C.3     1  ZINC000942661662    0.1000
      3 N3        -10.3140   -0.2199   55.6896 N.am    1  ZINC000942661662   -0.6000
      4 C4        -10.2375   -0.6326   54.4089 C.2     1  ZINC000942661662    0.6000
      5 O5        -10.4001   -1.8070   54.1376 O.2     1  ZINC000942661662   -0.5200
      6 C6         -9.9567    0.3392   53.3370 C.2     1  ZINC000942661662   -0.2400
      7 C7        -10.8566    0.9117   52.4865 C.2     1  ZINC000942661662    0.0700
      8 C8        -12.3422    0.6593   52.4746 C.3     1  ZINC000942661662   -0.0900
      9 O9        -10.1967    1.7345   51.6657 O.3     1  ZINC000942661662   -0.1700
     10 C10        -8.8827    1.7315   51.9391 C.2     1  ZINC000942661662   -0.0300
     11 C11        -8.6491    0.8988   52.9650 C.2     1  ZINC000942661662   -0.1900
     12 C12       -10.5931   -1.1859   56.7551 C.3     1  ZINC000942661662    0.1400
     13 H13        -9.7210   -1.8090   56.9530 H       1  ZINC000942661662    0.1100
     14 C14       -11.8304   -2.0552   56.4076 C.3     1  ZINC000942661662   -0.1400
     15 C15       -12.3666   -2.4639   57.7958 C.3     1  ZINC000942661662    0.1000
     16 N16       -11.8649   -1.4786   58.7648 N.am    1  ZINC000942661662   -0.6200
     17 C17       -12.0943   -1.4959   60.0929 C.2     1  ZINC000942661662    0.6100
     18 O18       -12.7683   -2.3831   60.5823 O.2     1  ZINC000942661662   -0.5200
     19 C19       -11.5318   -0.4454   60.9481 C.2     1  ZINC000942661662   -0.0600
     20 C20       -10.4855   -0.5893   61.8342 C.2     1  ZINC000942661662   -0.0700
     21 C21        -9.7082   -1.8517   62.1047 C.3     1  ZINC000942661662   -0.0900
     22 C22       -10.2811    0.6571   62.4344 C.2     1  ZINC000942661662   -0.2100
     23 C23       -11.1860    1.5213   61.9160 C.2     1  ZINC000942661662    0.0500
     24 C24       -11.3188    2.9767   62.2841 C.3     1  ZINC000942661662   -0.0900
     25 N25       -11.9484    0.8653   61.0075 N.pl3   1  ZINC000942661662   -0.5400
     26 C26       -11.0675   -0.4692   58.0438 C.3     1  ZINC000942661662    0.0900
     27 H27        -8.5927    2.4378   56.8933 H       1  ZINC000942661662    0.0700
     28 H28        -8.6717    0.7896   57.5605 H       1  ZINC000942661662    0.0600
     29 H29        -7.9687    1.0644   55.9485 H       1  ZINC000942661662    0.0600
     30 H30       -10.8878    1.5156   56.7180 H       1  ZINC000942661662    0.0900
     31 H31       -10.1850    1.7905   55.1059 H       1  ZINC000942661662    0.0800
     32 H32       -12.8369    1.3707   53.1361 H       1  ZINC000942661662    0.0900
     33 H33       -12.7232    0.7805   51.4606 H       1  ZINC000942661662    0.0900
     34 H34       -12.5411   -0.3556   52.8186 H       1  ZINC000942661662    0.1000
     35 H35        -8.1336    2.3108   51.4197 H       1  ZINC000942661662    0.2100
     36 H36        -7.6944    0.6787   53.4195 H       1  ZINC000942661662    0.1600
     37 H37       -12.5726   -1.4701   55.8645 H       1  ZINC000942661662    0.1000
     38 H38       -11.5355   -2.9339   55.8340 H       1  ZINC000942661662    0.0900
     39 H39       -13.4565   -2.4558   57.7893 H       1  ZINC000942661662    0.0700
     40 H40       -12.0028   -3.4579   58.0558 H       1  ZINC000942661662    0.0700
     41 H41        -8.8568   -1.9066   61.4264 H       1  ZINC000942661662    0.0700
     42 H42        -9.3523   -1.8455   63.1349 H       1  ZINC000942661662    0.0600
     43 H43       -10.3535   -2.7162   61.9484 H       1  ZINC000942661662    0.0800
     44 H44        -9.5345    0.8892   63.1795 H       1  ZINC000942661662    0.1400
     45 H45       -10.6866    3.5762   61.6291 H       1  ZINC000942661662    0.0800
     46 H46       -12.3575    3.2869   62.1701 H       1  ZINC000942661662    0.0700
     47 H47       -11.0084    3.1195   63.3191 H       1  ZINC000942661662    0.0900
     48 H48       -12.6711    1.2532   60.4897 H       1  ZINC000942661662    0.4100
     49 H49       -10.2119   -0.1615   58.6450 H       1  ZINC000942661662    0.0800
     50 H50       -11.6850    0.3931   57.7923 H       1  ZINC000942661662    0.1000
@<TRIPOS>BOND
     1     1     2    1
     2     1    27    1
     3     1    28    1
     4     1    29    1
     5     2     3    1
     6     2    30    1
     7     2    31    1
     8     3     4   am
     9     3    12    1
    10     4     5    2
    11     4     6    1
    12     6    11    1
    13     6     7    2
    14     7     8    1
    15     7     9    1
    16     8    32    1
    17     8    33    1
    18     8    34    1
    19     9    10    1
    20    10    11    2
    21    10    35    1
    22    11    36    1
    23    12    13    1
    24    12    26    1
    25    12    14    1
    26    14    15    1
    27    14    37    1
    28    14    38    1
    29    15    16    1
    30    15    39    1
    31    15    40    1
    32    16    17   am
    33    16    26    1
    34    17    18    2
    35    17    19    1
    36    19    25    1
    37    19    20    2
    38    20    21    1
    39    20    22    1
    40    21    41    1
    41    21    42    1
    42    21    43    1
    43    22    23    2
    44    22    44    1
    45    23    24    1
    46    23    25    1
    47    24    45    1
    48    24    46    1
    49    24    47    1
    50    25    48    1
    51    26    49    1
    52    26    50    1
@<TRIPOS>SUBSTRUCTURE
     1 ZINC000942661662        1 TEMP              0 ****  ****    0 ROOT


##########                                Name:      oleObject5.pdb
##########                DOCK_Rotatable_Bonds:                   5
##########                         Heavy_Atoms:                  24
##########                    Molecular_Weight:             323.438
##########                DOCK_Rotatable_Bonds:                   5
##########                       Formal_Charge:         0.000200074
##########                     HBond_Acceptors:                   4
##########                        HBond_Donors:                   2
##########                         Heavy_Atoms:                  24
##########                          Grid_Score:          -23.748035
##########                     Grid_vdw_energy:          -23.640823
##########                      Grid_es_energy:           -0.107212
##########           Internal_energy_repulsive:           13.189722

@<TRIPOS>MOLECULE
oleObject5.pdb
 49 51 1 0 0
SMALL
NO_CHARGES


@<TRIPOS>ATOM
      1 C         -16.3324   -3.5435   60.4508 C.3     1  UNL        -0.0394
      2 C         -16.2313   -2.0899   59.9989 C.ar    1  UNL        -0.0456
      3 C         -17.3126   -1.5477   59.2766 C.ar    1  UNL        -0.0590
      4 C         -17.2774   -0.2255   58.8120 C.ar    1  UNL        -0.0620
      5 C         -16.1523    0.5696   59.0614 C.ar    1  UNL        -0.0619
      6 C         -15.0687    0.0409   59.7770 C.ar    1  UNL        -0.0565
      7 C         -15.0921   -1.2844   60.2611 C.ar    1  UNL        -0.0188
      8 C         -13.8598   -1.8086   61.0109 C.3     1  UNL         0.0906
      9 N         -12.8764   -2.3195   60.0396 N.am    1  UNL        -0.3025
     10 C         -11.6742   -2.8923   60.4139 C.2     1  UNL         0.2156
     11 O         -11.4203   -3.1630   61.5750 O.2     1  UNL        -0.2774
     12 C         -10.8061   -3.3541   59.2280 C.3     1  UNL         0.0382
     13 C          -9.3591   -2.8023   59.3329 C.3     1  UNL        -0.0292
     14 C          -9.2949   -1.2969   58.9947 C.3     1  UNL        -0.0041
     15 N          -9.8492   -1.0394   57.6545 N.4     1  UNL        -0.3167
     16 C         -11.2478   -1.4794   57.5054 C.3     1  UNL        -0.0041
     17 C         -11.4157   -2.9811   57.8487 C.3     1  UNL        -0.0292
     18 C         -13.2712   -0.7474   61.9564 C.ar    1  UNL         0.0681
     19 N         -12.1119   -0.1639   61.5658 N.ar    1  UNL        -0.2587
     20 C         -11.5510    0.7794   62.3455 C.ar    1  UNL         0.0272
     21 C         -12.1201    1.1950   63.5581 C.ar    1  UNL        -0.0435
     22 C         -13.3221    0.6042   63.9727 C.ar    1  UNL        -0.0559
     23 C         -13.9166   -0.3838   63.1651 C.ar    1  UNL        -0.0272
     24 C         -15.2274   -1.0194   63.6110 C.3     1  UNL        -0.0379
     25 H         -17.3370   -3.9499   60.2801 H       1  UNL         0.0280
     26 H         -16.1239   -3.6544   61.5206 H       1  UNL         0.0280
     27 H         -15.6321   -4.1779   59.8967 H       1  UNL         0.0280
     28 H         -18.1876   -2.1570   59.0675 H       1  UNL         0.0626
     29 H         -18.1178    0.1788   58.2551 H       1  UNL         0.0623
     30 H         -16.1170    1.5925   58.6976 H       1  UNL         0.0623
     31 H         -14.1998    0.6690   59.9492 H       1  UNL         0.0627
     32 H         -14.1476   -2.6561   61.6400 H       1  UNL         0.0624
     33 H         -13.2522   -2.6004   59.1434 H       1  UNL         0.1504
     34 H         -10.7587   -4.4492   59.2888 H       1  UNL         0.0402
     35 H          -8.7161   -3.3491   58.6311 H       1  UNL         0.0288
     36 H          -8.9446   -2.9772   60.3335 H       1  UNL         0.0288
     37 H          -8.2521   -0.9580   59.0358 H       1  UNL         0.0428
     38 H          -9.8606   -0.7303   59.7459 H       1  UNL         0.0428
     39 H          -9.2760   -1.5225   56.9637 H       1  UNL         0.1222
     40 H         -11.5821   -1.3033   56.4752 H       1  UNL         0.0428
     41 H         -11.8880   -0.8791   58.1637 H       1  UNL         0.0428
     42 H         -10.9152   -3.5726   57.0713 H       1  UNL         0.0288
     43 H         -12.4777   -3.2569   57.8156 H       1  UNL         0.0288
     44 H         -10.6187    1.2139   61.9870 H       1  UNL         0.0840
     45 H         -11.6401    1.9595   64.1618 H       1  UNL         0.0639
     46 H         -13.7843    0.9114   64.9066 H       1  UNL         0.0627
     47 H         -15.5704   -0.6087   64.5689 H       1  UNL         0.0280
     48 H         -15.1172   -2.1027   63.7427 H       1  UNL         0.0280
     49 H         -16.0225   -0.8397   62.8773 H       1  UNL         0.0280
@<TRIPOS>BOND
     1     1     2    1
     2     1    25    1
     3     1    26    1
     4     1    27    1
     5     2     3   ar
     6     2     7   ar
     7     3     4   ar
     8     3    28    1
     9     4     5   ar
    10     4    29    1
    11     5     6   ar
    12     5    30    1
    13     6     7   ar
    14     6    31    1
    15     7     8    1
    16     8     9    1
    17     8    18    1
    18     8    32    1
    19     9    10   am
    20     9    33    1
    21    10    11    2
    22    10    12    1
    23    12    13    1
    24    12    17    1
    25    12    34    1
    26    13    14    1
    27    13    35    1
    28    13    36    1
    29    14    15    1
    30    14    37    1
    31    14    38    1
    32    15    16    1
    33    15    39    1
    34    16    17    1
    35    16    40    1
    36    16    41    1
    37    17    42    1
    38    17    43    1
    39    18    19   ar
    40    18    23   ar
    41    19    20   ar
    42    20    21   ar
    43    20    44    1
    44    21    22   ar
    45    21    45    1
    46    22    23   ar
    47    22    46    1
    48    23    24    1
    49    24    47    1
    50    24    48    1
    51    24    49    1
@<TRIPOS>SUBSTRUCTURE
     1 UNL         1 TEMP              0 ****  ****    0 ROOT


##########                                Name:    ZINC000797321835
##########                DOCK_Rotatable_Bonds:                   4
##########                         Heavy_Atoms:                  22
##########                    Molecular_Weight:             381.253
##########                DOCK_Rotatable_Bonds:                   4
##########                       Formal_Charge:           0.0200001
##########                     HBond_Acceptors:                   7
##########                        HBond_Donors:                   1
##########                         Heavy_Atoms:                  22
##########                          Grid_Score:          -23.685669
##########                     Grid_vdw_energy:          -23.835875
##########                      Grid_es_energy:            0.150206
##########           Internal_energy_repulsive:           23.861084

@<TRIPOS>MOLECULE
ZINC000797321835
 35 37 1 0 0
SMALL
USER_CHARGES


@<TRIPOS>ATOM
      1 C1        -10.2760   -3.0382   57.4236 C.3     1  ZINC000797321835    0.1000
      2 N2        -11.2824   -2.7872   58.4582 N.am    1  ZINC000797321835   -0.6000
      3 C3        -11.2714   -1.7281   59.2859 C.2     1  ZINC000797321835    0.5200
      4 O4        -10.4294   -0.8552   59.2860 O.2     1  ZINC000797321835   -0.5200
      5 C5        -12.4625   -1.7830   60.2170 C.3     1  ZINC000797321835   -0.1500
      6 C6        -13.4152   -2.8047   59.5540 C.3     1  ZINC000797321835   -0.1200
      7 C7        -12.4355   -3.6565   58.7201 C.3     1  ZINC000797321835    0.1200
      8 H8        -12.1191   -4.5317   59.2876 H       1  ZINC000797321835    0.1100
      9 C9        -13.0833   -4.0806   57.4272 C.2     1  ZINC000797321835    0.4900
     10 O10       -12.9841   -3.3813   56.4413 O.2     1  ZINC000797321835   -0.4400
     11 N11       -13.7730   -5.2369   57.3667 N.am    1  ZINC000797321835   -0.6500
     12 C12       -14.3726   -5.6294   56.1701 C.ar    1  ZINC000797321835    0.3000
     13 C13       -15.0912   -6.8240   56.1085 C.ar    1  ZINC000797321835   -0.1400
     14 C14       -15.6693   -7.1734   54.9017 C.ar    1  ZINC000797321835   -0.0800
     15 C15       -15.4970   -6.3052   53.8155 C.ar    1  ZINC000797321835    0.1100
     16 C16       -16.0940   -6.6307   52.5045 C.2     1  ZINC000797321835   -0.1400
     17 C17       -16.8283   -7.7291   52.2346 C.2     1  ZINC000797321835   -0.0900
     18 C18       -17.2801   -7.8154   50.9346 C.2     1  ZINC000797321835   -0.0900
     19 C19       -16.9218   -6.7992   50.1419 C.2     1  ZINC000797321835   -0.2000
     20 Br20      -17.3832   -6.6286   48.3160 Br      1  ZINC000797321835    0.0200
     21 S21       -15.9633   -5.6421   51.0558 S.3     1  ZINC000797321835    0.1900
     22 N22       -14.7949   -5.1878   53.9699 N.ar    1  ZINC000797321835   -0.1900
     23 N23       -14.2647   -4.8658   55.0935 N.ar    1  ZINC000797321835   -0.2200
     24 H24       -10.5852   -2.5623   56.4930 H       1  ZINC000797321835    0.0700
     25 H25        -9.3179   -2.6268   57.7413 H       1  ZINC000797321835    0.0800
     26 H26       -10.1762   -4.1122   57.2668 H       1  ZINC000797321835    0.0700
     27 H27       -12.1589   -2.1296   61.2047 H       1  ZINC000797321835    0.1100
     28 H28       -12.9392   -0.8051   60.2847 H       1  ZINC000797321835    0.1100
     29 H29       -13.9211   -3.4109   60.3055 H       1  ZINC000797321835    0.1100
     30 H30       -14.1368   -2.3036   58.9089 H       1  ZINC000797321835    0.0900
     31 H31       -13.8523   -5.7962   58.1552 H       1  ZINC000797321835    0.4200
     32 H32       -15.1927   -7.4571   56.9775 H       1  ZINC000797321835    0.1600
     33 H33       -16.2357   -8.0873   54.7997 H       1  ZINC000797321835    0.1500
     34 H34       -17.0452   -8.4819   52.9780 H       1  ZINC000797321835    0.1600
     35 H35       -17.8786   -8.6425   50.5824 H       1  ZINC000797321835    0.1600
@<TRIPOS>BOND
     1     1     2    1
     2     1    24    1
     3     1    25    1
     4     1    26    1
     5     2     7    1
     6     2     3   am
     7     3     4    2
     8     3     5    1
     9     5     6    1
    10     5    27    1
    11     5    28    1
    12     6     7    1
    13     6    29    1
    14     6    30    1
    15     7     8    1
    16     7     9    1
    17     9    10    2
    18     9    11   am
    19    11    12    1
    20    11    31    1
    21    12    23   ar
    22    12    13   ar
    23    13    14   ar
    24    13    32    1
    25    14    15   ar
    26    14    33    1
    27    15    16    1
    28    15    22   ar
    29    16    21    1
    30    16    17    2
    31    17    18    1
    32    17    34    1
    33    18    19    2
    34    18    35    1
    35    19    20    1
    36    19    21    1
    37    22    23   ar
@<TRIPOS>SUBSTRUCTURE
     1 ZINC000797321835        1 TEMP              0 ****  ****    0 ROOT


##########                                Name:    ZINC000793092912
##########                DOCK_Rotatable_Bonds:                   4
##########                         Heavy_Atoms:                  26
##########                    Molecular_Weight:               407.2
##########                DOCK_Rotatable_Bonds:                   4
##########                       Formal_Charge:         2.90573e-07
##########                     HBond_Acceptors:                  10
##########                        HBond_Donors:                   1
##########                         Heavy_Atoms:                  26
##########                          Grid_Score:          -23.620543
##########                     Grid_vdw_energy:          -23.221640
##########                      Grid_es_energy:           -0.398904
##########           Internal_energy_repulsive:           11.413867

@<TRIPOS>MOLECULE
ZINC000793092912
 40 43 1 0 0
SMALL
USER_CHARGES


@<TRIPOS>ATOM
      1 C1        -11.3562   -0.3522   62.4813 C.3     1  ZINC000793092912   -0.1300
      2 C2        -11.4913   -0.9422   61.0761 C.3     1  ZINC000793092912   -0.0800
      3 C3        -12.7561   -1.7508   60.8320 C.3     1  ZINC000793092912   -0.1100
      4 C4        -13.4912   -1.3134   59.5791 C.3     1  ZINC000793092912    0.1100
      5 N5        -12.5798   -1.0404   58.4807 N.am    1  ZINC000793092912   -0.5700
      6 C6        -12.7519   -1.6955   57.3156 C.2     1  ZINC000793092912    0.5100
      7 O7        -13.6557   -2.4968   57.1978 O.2     1  ZINC000793092912   -0.5100
      8 C8        -11.8306   -1.4354   56.1695 C.2     1  ZINC000793092912    0.5100
      9 O9        -11.1012   -2.3173   55.7649 O.2     1  ZINC000793092912   -0.4900
     10 N10       -11.8090   -0.2215   55.5843 N.am    1  ZINC000793092912   -0.6400
     11 C11       -10.9461    0.0221   54.5109 C.ar    1  ZINC000793092912    0.1600
     12 C12       -11.4267   -0.0252   53.2089 C.ar    1  ZINC000793092912   -0.1200
     13 C13       -10.5753    0.2152   52.1474 C.ar    1  ZINC000793092912   -0.0600
     14 C14        -9.2401    0.5034   52.3787 C.ar    1  ZINC000793092912    0.0200
     15 O15        -8.2117    0.7729   51.5212 O.3     1  ZINC000793092912   -0.2800
     16 C16        -7.1896    1.3873   52.3280 C.3     1  ZINC000793092912    0.5700
     17 F17        -5.9182    1.0267   51.8690 F       1  ZINC000793092912   -0.1100
     18 F18        -7.3341    2.7788   52.3285 F       1  ZINC000793092912   -0.1500
     19 O19        -7.4234    0.8510   53.6435 O.3     1  ZINC000793092912   -0.2800
     20 C20        -8.7546    0.5515   53.6840 C.ar    1  ZINC000793092912    0.0500
     21 C21        -9.6093    0.3168   54.7472 C.ar    1  ZINC000793092912   -0.0900
     22 C22       -11.4882   -0.0847   58.5935 C.3     1  ZINC000793092912    0.1100
     23 C23       -10.8007   -0.1965   59.9462 C.3     1  ZINC000793092912   -0.1200
     24 H24       -10.2558    0.6963   60.2530 H       1  ZINC000793092912    0.1400
     25 C25       -10.2129   -1.5109   60.4371 C.3     1  ZINC000793092912    0.0000
     26 Cl26       -8.6823   -1.4367   61.3870 Cl      1  ZINC000793092912   -0.0800
     27 Cl27      -10.4030   -2.9568   59.3767 Cl      1  ZINC000793092912   -0.0900
     28 H28       -11.7754    0.6540   62.4948 H       1  ZINC000793092912    0.0800
     29 H29       -11.8944   -0.9795   63.1920 H       1  ZINC000793092912    0.0700
     30 H30       -10.3029   -0.3107   62.7582 H       1  ZINC000793092912    0.0700
     31 H31       -12.4889   -2.8031   60.7350 H       1  ZINC000793092912    0.0900
     32 H32       -13.4197   -1.6350   61.6890 H       1  ZINC000793092912    0.1000
     33 H33       -14.1812   -2.1021   59.2794 H       1  ZINC000793092912    0.1100
     34 H34       -14.0611   -0.4107   59.7994 H       1  ZINC000793092912    0.0800
     35 H35       -12.3919    0.4833   55.9076 H       1  ZINC000793092912    0.4300
     36 H36       -12.4671   -0.2504   53.0256 H       1  ZINC000793092912    0.1500
     37 H37       -10.9513    0.1781   51.1356 H       1  ZINC000793092912    0.1500
     38 H38        -9.2362    0.3592   55.7597 H       1  ZINC000793092912    0.1600
     39 H39       -10.7521   -0.2901   57.8163 H       1  ZINC000793092912    0.1400
     40 H40       -11.8801    0.9229   58.4553 H       1  ZINC000793092912    0.1000
@<TRIPOS>BOND
     1     1     2    1
     2     1    28    1
     3     1    29    1
     4     1    30    1
     5     2    23    1
     6     2    25    1
     7     2     3    1
     8     3     4    1
     9     3    31    1
    10     3    32    1
    11     4     5    1
    12     4    33    1
    13     4    34    1
    14     5     6   am
    15     5    22    1
    16     6     7    2
    17     6     8    1
    18     8     9    2
    19     8    10   am
    20    10    11    1
    21    10    35    1
    22    11    21   ar
    23    11    12   ar
    24    12    13   ar
    25    12    36    1
    26    13    14   ar
    27    13    37    1
    28    14    20   ar
    29    14    15    1
    30    15    16    1
    31    16    17    1
    32    16    18    1
    33    16    19    1
    34    19    20    1
    35    20    21   ar
    36    21    38    1
    37    22    23    1
    38    22    39    1
    39    22    40    1
    40    23    24    1
    41    23    25    1
    42    25    26    1
    43    25    27    1
@<TRIPOS>SUBSTRUCTURE
     1 ZINC000793092912        1 TEMP              0 ****  ****    0 ROOT


##########                                Name:    ZINC000534890536
##########                DOCK_Rotatable_Bonds:                   6
##########                         Heavy_Atoms:                  30
##########                    Molecular_Weight:             411.476
##########                DOCK_Rotatable_Bonds:                   6
##########                       Formal_Charge:          0.00999957
##########                     HBond_Acceptors:                   7
##########                        HBond_Donors:                   1
##########                         Heavy_Atoms:                  30
##########                          Grid_Score:          -23.505682
##########                     Grid_vdw_energy:          -23.638666
##########                      Grid_es_energy:            0.132983
##########           Internal_energy_repulsive:           14.223841

@<TRIPOS>MOLECULE
ZINC000534890536
 56 59 1 0 0
SMALL
USER_CHARGES


@<TRIPOS>ATOM
      1 C1        -14.7016    5.2171   46.7150 C.3     1  ZINC000534890536    0.0300
      2 O2        -14.4843    3.8131   46.8683 O.3     1  ZINC000534890536   -0.3200
      3 C3        -14.0837    3.3808   48.0928 C.ar    1  ZINC000534890536    0.1300
      4 C4        -13.9101    4.2885   49.1275 C.ar    1  ZINC000534890536   -0.2100
      5 C5        -13.5033    3.8465   50.3715 C.ar    1  ZINC000534890536   -0.0700
      6 C6        -13.2688    2.5008   50.5858 C.ar    1  ZINC000534890536   -0.1100
      7 C7        -12.8245    2.0214   51.9436 C.3     1  ZINC000534890536   -0.0600
      8 H8        -12.8128    2.8421   52.6608 H       1  ZINC000534890536    0.0900
      9 C9        -11.4365    1.3327   51.8637 C.3     1  ZINC000534890536   -0.1200
     10 C10       -11.4632    0.3611   53.0623 C.3     1  ZINC000534890536    0.1000
     11 N11       -12.8744    0.1126   53.3914 N.am    1  ZINC000534890536   -0.6400
     12 C12       -13.3212   -0.6683   54.3950 C.2     1  ZINC000534890536    0.7300
     13 O13       -14.5161   -0.8029   54.5748 O.2     1  ZINC000534890536   -0.5700
     14 N14       -12.4434   -1.3001   55.1993 N.am    1  ZINC000534890536   -0.7300
     15 C15       -12.9291   -2.1475   56.2912 C.3     1  ZINC000534890536    0.1600
     16 H16       -14.0079   -2.0278   56.3901 H       1  ZINC000534890536    0.1200
     17 C17       -12.6062   -3.6112   55.9809 C.3     1  ZINC000534890536   -0.1300
     18 C18       -12.8683   -4.4432   57.2421 C.3     1  ZINC000534890536   -0.1300
     19 C19       -11.8418   -4.0550   58.3069 C.3     1  ZINC000534890536    0.1100
     20 N20       -11.8022   -2.6076   58.4735 N.am    1  ZINC000534890536   -0.5600
     21 C21       -11.2437   -2.0977   59.6524 C.ar    1  ZINC000534890536    0.1000
     22 C22       -12.0643   -1.7405   60.7129 C.ar    1  ZINC000534890536   -0.0800
     23 C23       -11.5106   -1.2381   61.8749 C.ar    1  ZINC000534890536   -0.1200
     24 C24       -10.1404   -1.0901   61.9828 C.ar    1  ZINC000534890536   -0.0800
     25 C25        -9.3182   -1.4446   60.9285 C.ar    1  ZINC000534890536   -0.1500
     26 C26        -9.8649   -1.9533   59.7649 C.ar    1  ZINC000534890536    0.1100
     27 F27        -9.0620   -2.3000   58.7352 F       1  ZINC000534890536   -0.1300
     28 C28       -12.2623   -1.7397   57.5735 C.2     1  ZINC000534890536    0.5000
     29 O29       -12.1384   -0.5551   57.8026 O.2     1  ZINC000534890536   -0.5100
     30 C30       -13.7204    0.8605   52.4431 C.3     1  ZINC000534890536    0.1300
     31 C31       -13.4415    1.5940   49.5562 C.ar    1  ZINC000534890536   -0.0700
     32 C32       -13.8532    2.0303   48.3118 C.ar    1  ZINC000534890536   -0.1500
     33 H33       -15.4769    5.5426   47.4086 H       1  ZINC000534890536    0.0600
     34 H34       -13.7764    5.7533   46.9267 H       1  ZINC000534890536    0.0600
     35 H35       -15.0172    5.4265   45.6929 H       1  ZINC000534890536    0.1000
     36 H36       -14.0925    5.3397   48.9606 H       1  ZINC000534890536    0.1300
     37 H37       -13.3680    4.5526   51.1774 H       1  ZINC000534890536    0.1300
     38 H38       -11.3306    0.7862   50.9266 H       1  ZINC000534890536    0.0800
     39 H39       -10.6361    2.0639   51.9777 H       1  ZINC000534890536    0.0900
     40 H40       -10.9753   -0.5752   52.7914 H       1  ZINC000534890536    0.0700
     41 H41       -10.9572    0.8117   53.9162 H       1  ZINC000534890536    0.0700
     42 H42       -11.4900   -1.1938   55.0551 H       1  ZINC000534890536    0.4000
     43 H43       -13.2433   -3.9637   55.1698 H       1  ZINC000534890536    0.0900
     44 H44       -11.5591   -3.7029   55.6919 H       1  ZINC000534890536    0.0800
     45 H45       -13.8734   -4.2401   57.6118 H       1  ZINC000534890536    0.0800
     46 H46       -12.7695   -5.5032   57.0080 H       1  ZINC000534890536    0.1000
     47 H47       -12.1128   -4.5196   59.2550 H       1  ZINC000534890536    0.0800
     48 H48       -10.8567   -4.4099   58.0040 H       1  ZINC000534890536    0.0700
     49 H49       -13.1350   -1.8549   60.6300 H       1  ZINC000534890536    0.1300
     50 H50       -12.1493   -0.9602   62.7002 H       1  ZINC000534890536    0.1300
     51 H51        -9.7109   -0.6964   62.8921 H       1  ZINC000534890536    0.1400
     52 H52        -8.2480   -1.3278   61.0159 H       1  ZINC000534890536    0.1400
     53 H53       -14.6031    1.2517   52.9491 H       1  ZINC000534890536    0.0800
     54 H54       -14.0120    0.2216   51.6095 H       1  ZINC000534890536    0.0700
     55 H55       -13.2580    0.5435   49.7261 H       1  ZINC000534890536    0.1300
     56 H56       -13.9880    1.3218   47.5080 H       1  ZINC000534890536    0.1300
@<TRIPOS>BOND
     1     1     2    1
     2     1    33    1
     3     1    34    1
     4     1    35    1
     5     2     3    1
     6     3    32   ar
     7     3     4   ar
     8     4     5   ar
     9     4    36    1
    10     5     6   ar
    11     5    37    1
    12     6     7    1
    13     6    31   ar
    14     7     8    1
    15     7    30    1
    16     7     9    1
    17     9    10    1
    18     9    38    1
    19     9    39    1
    20    10    11    1
    21    10    40    1
    22    10    41    1
    23    11    12   am
    24    11    30    1
    25    12    13    2
    26    12    14   am
    27    14    15    1
    28    14    42    1
    29    15    16    1
    30    15    28    1
    31    15    17    1
    32    17    18    1
    33    17    43    1
    34    17    44    1
    35    18    19    1
    36    18    45    1
    37    18    46    1
    38    19    20    1
    39    19    47    1
    40    19    48    1
    41    20    21    1
    42    20    28   am
    43    21    26   ar
    44    21    22   ar
    45    22    23   ar
    46    22    49    1
    47    23    24   ar
    48    23    50    1
    49    24    25   ar
    50    24    51    1
    51    25    26   ar
    52    25    52    1
    53    26    27    1
    54    28    29    2
    55    30    53    1
    56    30    54    1
    57    31    32   ar
    58    31    55    1
    59    32    56    1
@<TRIPOS>SUBSTRUCTURE
     1 ZINC000534890536        1 TEMP              0 ****  ****    0 ROOT


##########                                Name:    ZINC000648570180
##########                DOCK_Rotatable_Bonds:                   4
##########                         Heavy_Atoms:                  25
##########                    Molecular_Weight:             342.484
##########                DOCK_Rotatable_Bonds:                   4
##########                       Formal_Charge:          0.00999971
##########                     HBond_Acceptors:                   5
##########                        HBond_Donors:                   0
##########                         Heavy_Atoms:                  25
##########                          Grid_Score:          -23.472628
##########                     Grid_vdw_energy:          -22.348759
##########                      Grid_es_energy:           -1.123870
##########           Internal_energy_repulsive:           80.722122

@<TRIPOS>MOLECULE
ZINC000648570180
 55 58 1 0 0
SMALL
USER_CHARGES


@<TRIPOS>ATOM
      1 C1          3.6573    2.6860   53.8987 C.3     1  ZINC000648570180   -0.1500
      2 C2          4.6003    2.9888   52.7325 C.3     1  ZINC000648570180   -0.0600
      3 C3          5.3694    4.2834   53.0036 C.3     1  ZINC000648570180   -0.1400
      4 C4          5.5862    1.8192   52.5327 C.3     1  ZINC000648570180   -0.1200
      5 C5          5.7535    1.7220   50.9959 C.3     1  ZINC000648570180   -0.1300
      6 C6          4.3247    2.0191   50.4770 C.3     1  ZINC000648570180   -0.1200
      7 C7          3.7983    3.1159   51.4255 C.3     1  ZINC000648570180   -0.0700
      8 H8          3.9576    4.0996   50.9839 H       1  ZINC000648570180    0.0800
      9 C9          2.3087    2.9005   51.7004 C.3     1  ZINC000648570180   -0.1000
     10 H10         2.1574    2.0769   52.3982 H       1  ZINC000648570180    0.1000
     11 C11         1.6457    4.2019   52.2240 C.3     1  ZINC000648570180   -0.1400
     12 C12         0.1722    4.0353   51.7966 C.3     1  ZINC000648570180    0.1200
     13 N13         0.1467    3.0768   50.6821 N.am    1  ZINC000648570180   -0.6000
     14 C14        -0.9579    2.6485   50.0397 C.2     1  ZINC000648570180    0.5800
     15 O15        -2.0516    3.0604   50.3712 O.2     1  ZINC000648570180   -0.5200
     16 C16        -0.8382    1.6731   48.9267 C.ar    1  ZINC000648570180    0.1600
     17 C17        -1.3253    0.3740   49.0684 C.ar    1  ZINC000648570180   -0.2000
     18 C18        -1.1910   -0.5022   48.0001 C.ar    1  ZINC000648570180    0.1800
     19 N19        -0.6104   -0.0825   46.8902 N.ar    1  ZINC000648570180   -0.5400
     20 C20        -0.1569    1.1590   46.7851 C.ar    1  ZINC000648570180    0.4800
     21 N21         0.4453    1.5590   45.6045 N.3     1  ZINC000648570180   -0.4400
     22 C22        -0.3892    2.5618   44.8944 C.3     1  ZINC000648570180    0.0500
     23 C23         0.6211    3.2570   43.9475 C.3     1  ZINC000648570180   -0.1200
     24 C24         1.9069    3.3244   44.8033 C.3     1  ZINC000648570180   -0.1300
     25 C25         1.7390    2.2253   45.8687 C.3     1  ZINC000648570180    0.0400
     26 N26        -0.2693    2.0269   47.7769 N.ar    1  ZINC000648570180   -0.5000
     27 C27         1.5297    2.6618   50.3828 C.3     1  ZINC000648570180    0.1100
     28 H28         3.0359    1.8259   53.6496 H       1  ZINC000648570180    0.0600
     29 H29         4.2426    2.4649   54.7913 H       1  ZINC000648570180    0.0500
     30 H30         3.0217    3.5514   54.0862 H       1  ZINC000648570180    0.0700
     31 H31         5.9434    4.1790   53.9243 H       1  ZINC000648570180    0.0500
     32 H32         6.0470    4.4839   52.1737 H       1  ZINC000648570180    0.0500
     33 H33         4.6657    5.1095   53.1058 H       1  ZINC000648570180    0.0500
     34 H34         6.5420    2.0407   53.0073 H       1  ZINC000648570180    0.0600
     35 H35         5.1669    0.8948   52.9301 H       1  ZINC000648570180    0.0700
     36 H36         6.4589    2.4710   50.6360 H       1  ZINC000648570180    0.0700
     37 H37         6.0697    0.7203   50.7045 H       1  ZINC000648570180    0.0700
     38 H38         4.3601    2.3866   49.4514 H       1  ZINC000648570180    0.0700
     39 H39         3.7018    1.1271   50.5424 H       1  ZINC000648570180    0.0700
     40 H40         1.7276    4.2669   53.3089 H       1  ZINC000648570180    0.0900
     41 H41         2.0882    5.0778   51.7495 H       1  ZINC000648570180    0.0800
     42 H42        -0.4143    3.6498   52.6306 H       1  ZINC000648570180    0.0800
     43 H43        -0.2297    4.9944   51.4700 H       1  ZINC000648570180    0.0700
     44 H44        -1.7956    0.0571   49.9876 H       1  ZINC000648570180    0.1600
     45 H45        -1.5567   -1.5156   48.0756 H       1  ZINC000648570180    0.1800
     46 H46        -1.1772    2.0713   44.3230 H       1  ZINC000648570180    0.1000
     47 H47        -0.8123    3.2782   45.5986 H       1  ZINC000648570180    0.0500
     48 H48         0.7849    2.6583   43.0516 H       1  ZINC000648570180    0.0800
     49 H49         0.2787    4.2584   43.6864 H       1  ZINC000648570180    0.0800
     50 H50         2.7828    3.1228   44.1865 H       1  ZINC000648570180    0.0800
     51 H51         1.9944    4.3015   45.2783 H       1  ZINC000648570180    0.0700
     52 H52         1.7309    2.6706   46.8635 H       1  ZINC000648570180    0.0900
     53 H53         2.5516    1.5033   45.7887 H       1  ZINC000648570180    0.0900
     54 H54         1.9444    3.2736   49.5817 H       1  ZINC000648570180    0.0700
     55 H55         1.5586    1.6071   50.1095 H       1  ZINC000648570180    0.0800
@<TRIPOS>BOND
     1     1     2    1
     2     1    28    1
     3     1    29    1
     4     1    30    1
     5     2     7    1
     6     2     3    1
     7     2     4    1
     8     3    31    1
     9     3    32    1
    10     3    33    1
    11     4     5    1
    12     4    34    1
    13     4    35    1
    14     5     6    1
    15     5    36    1
    16     5    37    1
    17     6     7    1
    18     6    38    1
    19     6    39    1
    20     7     8    1
    21     7     9    1
    22     9    10    1
    23     9    27    1
    24     9    11    1
    25    11    12    1
    26    11    40    1
    27    11    41    1
    28    12    13    1
    29    12    42    1
    30    12    43    1
    31    13    14   am
    32    13    27    1
    33    14    15    2
    34    14    16    1
    35    16    26   ar
    36    16    17   ar
    37    17    18   ar
    38    17    44    1
    39    18    19   ar
    40    18    45    1
    41    19    20   ar
    42    20    21    1
    43    20    26   ar
    44    21    25    1
    45    21    22    1
    46    22    23    1
    47    22    46    1
    48    22    47    1
    49    23    24    1
    50    23    48    1
    51    23    49    1
    52    24    25    1
    53    24    50    1
    54    24    51    1
    55    25    52    1
    56    25    53    1
    57    27    54    1
    58    27    55    1
@<TRIPOS>SUBSTRUCTURE
     1 ZINC000648570180        1 TEMP              0 ****  ****    0 ROOT


##########                                Name:    ZINC000080099940
##########                DOCK_Rotatable_Bonds:                   4
##########                         Heavy_Atoms:                  26
##########                    Molecular_Weight:             343.388
##########                DOCK_Rotatable_Bonds:                   4
##########                       Formal_Charge:        -3.42727e-07
##########                     HBond_Acceptors:                   6
##########                        HBond_Donors:                   1
##########                         Heavy_Atoms:                  26
##########                          Grid_Score:          -23.301666
##########                     Grid_vdw_energy:          -21.248575
##########                      Grid_es_energy:           -2.053090
##########           Internal_energy_repulsive:            3.650196

@<TRIPOS>MOLECULE
ZINC000080099940
 43 46 1 0 0
SMALL
USER_CHARGES


@<TRIPOS>ATOM
      1 C1        -14.0180    1.5978   47.1921 C.3     1  ZINC000080099940   -0.1100
      2 C2        -13.1189    1.7823   48.3875 C.2     1  ZINC000080099940   -0.0700
      3 C3        -13.3261    1.0537   49.5171 C.2     1  ZINC000080099940   -0.0900
      4 C4        -12.4747    1.2399   50.6255 C.2     1  ZINC000080099940    0.2300
      5 N5        -12.4442    0.6803   51.8260 N.2     1  ZINC000080099940   -0.4800
      6 C6        -11.4284    1.2049   52.5298 C.2     1  ZINC000080099940    0.1000
      7 C7        -11.0566    0.8435   53.9200 C.ar    1  ZINC000080099940   -0.0200
      8 C8        -11.4791   -0.3689   54.4627 C.ar    1  ZINC000080099940   -0.0800
      9 C9        -11.1321   -0.7028   55.7546 C.ar    1  ZINC000080099940   -0.1200
     10 C10       -10.3619    0.1687   56.5158 C.ar    1  ZINC000080099940    0.1500
     11 N11       -10.0117   -0.1717   57.8253 N.am    1  ZINC000080099940   -0.6500
     12 C12       -10.8867    0.0288   58.8306 C.2     1  ZINC000080099940    0.5700
     13 O13       -11.9799    0.5056   58.5985 O.2     1  ZINC000080099940   -0.5000
     14 C14       -10.5149   -0.3326   60.2210 C.ar    1  ZINC000080099940    0.1300
     15 C15        -9.3016   -0.9676   60.4885 C.ar    1  ZINC000080099940   -0.1700
     16 C16        -9.0017   -1.2836   61.8062 C.ar    1  ZINC000080099940    0.1600
     17 N17        -9.8682   -0.9749   62.7555 N.ar    1  ZINC000080099940   -0.5000
     18 C18       -11.0069   -0.3743   62.4680 C.ar    1  ZINC000080099940    0.3200
     19 C19       -11.9618   -0.0430   63.5858 C.3     1  ZINC000080099940   -0.0900
     20 N20       -11.3308   -0.0514   61.2346 N.ar    1  ZINC000080099940   -0.5000
     21 C21        -9.9392    1.3779   55.9764 C.ar    1  ZINC000080099940   -0.1400
     22 C22       -10.2795    1.7134   54.6831 C.ar    1  ZINC000080099940   -0.0700
     23 C23       -10.7971    2.1252   51.7484 C.2     1  ZINC000080099940   -0.0900
     24 N24       -11.4522    2.1506   50.5489 N.pl3   1  ZINC000080099940   -0.3600
     25 C25       -11.2559    2.8751   49.4085 C.2     1  ZINC000080099940    0.0600
     26 C26       -12.0594    2.7032   48.3379 C.2     1  ZINC000080099940   -0.1400
     27 H27       -13.6945    2.2596   46.3886 H       1  ZINC000080099940    0.0700
     28 H28       -13.9653    0.5630   46.8540 H       1  ZINC000080099940    0.0800
     29 H29       -15.0446    1.8377   47.4693 H       1  ZINC000080099940    0.0800
     30 H30       -14.1352    0.3398   49.5648 H       1  ZINC000080099940    0.1500
     31 H31       -12.0781   -1.0459   53.8719 H       1  ZINC000080099940    0.1300
     32 H32       -11.4592   -1.6421   56.1755 H       1  ZINC000080099940    0.1400
     33 H33        -9.1390   -0.5524   58.0106 H       1  ZINC000080099940    0.4200
     34 H34        -8.6140   -1.2073   59.6909 H       1  ZINC000080099940    0.1600
     35 H35        -8.0724   -1.7756   62.0528 H       1  ZINC000080099940    0.1800
     36 H36       -11.7388    0.9517   63.9716 H       1  ZINC000080099940    0.0900
     37 H37       -12.9843   -0.0658   63.2088 H       1  ZINC000080099940    0.0900
     38 H38       -11.8531   -0.7757   64.3856 H       1  ZINC000080099940    0.0900
     39 H39        -9.3408    2.0535   56.5695 H       1  ZINC000080099940    0.1300
     40 H40        -9.9505    2.6530   54.2643 H       1  ZINC000080099940    0.1400
     41 H41        -9.9407    2.7224   52.0248 H       1  ZINC000080099940    0.1900
     42 H42       -10.4471    3.5891   49.3611 H       1  ZINC000080099940    0.1700
     43 H43       -11.8924    3.2828   47.4420 H       1  ZINC000080099940    0.1500
@<TRIPOS>BOND
     1     1     2    1
     2     1    27    1
     3     1    28    1
     4     1    29    1
     5     2    26    1
     6     2     3    2
     7     3     4    1
     8     3    30    1
     9     4    24    1
    10     4     5    2
    11     5     6    1
    12     6     7    1
    13     6    23    2
    14     7    22   ar
    15     7     8   ar
    16     8     9   ar
    17     8    31    1
    18     9    10   ar
    19     9    32    1
    20    10    11    1
    21    10    21   ar
    22    11    12   am
    23    11    33    1
    24    12    13    2
    25    12    14    1
    26    14    20   ar
    27    14    15   ar
    28    15    16   ar
    29    15    34    1
    30    16    17   ar
    31    16    35    1
    32    17    18   ar
    33    18    19    1
    34    18    20   ar
    35    19    36    1
    36    19    37    1
    37    19    38    1
    38    21    22   ar
    39    21    39    1
    40    22    40    1
    41    23    24    1
    42    23    41    1
    43    24    25    1
    44    25    26    2
    45    25    42    1
    46    26    43    1
@<TRIPOS>SUBSTRUCTURE
     1 ZINC000080099940        1 TEMP              0 ****  ****    0 ROOT


##########                                Name:    ZINC000616491533
##########                DOCK_Rotatable_Bonds:                   4
##########                         Heavy_Atoms:                  27
##########                    Molecular_Weight:             375.418
##########                DOCK_Rotatable_Bonds:                   4
##########                       Formal_Charge:           0.0299996
##########                     HBond_Acceptors:                   7
##########                        HBond_Donors:                   0
##########                         Heavy_Atoms:                  27
##########                          Grid_Score:          -22.977758
##########                     Grid_vdw_energy:          -22.283033
##########                      Grid_es_energy:           -0.694725
##########           Internal_energy_repulsive:            9.839358

@<TRIPOS>MOLECULE
ZINC000616491533
 50 53 1 0 0
SMALL
USER_CHARGES


@<TRIPOS>ATOM
      1 C1        -14.0507   -2.5556   59.4723 C.3     1  ZINC000616491533   -0.1700
      2 C2        -13.9289   -1.1639   60.0961 C.3     1  ZINC000616491533    0.1400
      3 H3        -14.9104   -0.6921   60.1442 H       1  ZINC000616491533    0.0800
      4 C4        -13.3296   -1.2752   61.5156 C.3     1  ZINC000616491533   -0.1200
      5 C5        -11.8376   -0.9576   61.2845 C.3     1  ZINC000616491533   -0.0700
      6 C6        -11.8887    0.0895   60.1555 C.3     1  ZINC000616491533    0.0900
      7 N7        -13.0145   -0.3354   59.2957 N.am    1  ZINC000616491533   -0.6100
      8 C8        -13.1724   -0.0180   57.9954 C.2     1  ZINC000616491533    0.6100
      9 O9        -14.1399   -0.4274   57.3828 O.2     1  ZINC000616491533   -0.5200
     10 C10       -12.1725    0.8254   57.3157 C.2     1  ZINC000616491533   -0.2400
     11 C11       -11.1565    0.3875   56.4899 C.2     1  ZINC000616491533    0.0700
     12 C12       -10.8639   -1.0427   56.1163 C.3     1  ZINC000616491533    0.3400
     13 F13       -10.2031   -1.6754   57.1748 F       1  ZINC000616491533   -0.1900
     14 F14       -12.0642   -1.7102   55.8503 F       1  ZINC000616491533   -0.1600
     15 N15       -10.4760    1.4733   56.0797 N.pl3   1  ZINC000616491533   -0.2900
     16 C16        -9.3647    1.4694   55.2257 C.ar    1  ZINC000616491533    0.1300
     17 C17        -8.1312    1.9093   55.6871 C.ar    1  ZINC000616491533   -0.1000
     18 C18        -7.0379    1.9042   54.8432 C.ar    1  ZINC000616491533   -0.1000
     19 C19        -7.1710    1.4621   53.5397 C.ar    1  ZINC000616491533   -0.1000
     20 C20        -8.3980    1.0235   53.0772 C.ar    1  ZINC000616491533   -0.1000
     21 C21        -9.4936    1.0203   53.9182 C.ar    1  ZINC000616491533   -0.0900
     22 N22       -11.0654    2.6072   56.6500 N.2     1  ZINC000616491533   -0.2600
     23 C23       -12.0785    2.2339   57.3827 C.2     1  ZINC000616491533    0.0700
     24 C24       -11.2137   -0.3662   62.5402 C.3     1  ZINC000616491533   -0.1400
     25 C25        -9.7241   -0.1060   62.2900 C.3     1  ZINC000616491533    0.0600
     26 O26        -9.0953   -1.3218   61.8787 O.3     1  ZINC000616491533   -0.3800
     27 C27        -9.6034   -1.8619   60.6569 C.3     1  ZINC000616491533    0.0600
     28 C28       -11.0876   -2.2021   60.8322 C.3     1  ZINC000616491533   -0.1500
     29 H29       -13.0645   -3.0161   59.4160 H       1  ZINC000616491533    0.0600
     30 H30       -14.7056   -3.1732   60.0869 H       1  ZINC000616491533    0.0600
     31 H31       -14.4691   -2.4688   58.4695 H       1  ZINC000616491533    0.0800
     32 H32       -13.7813   -0.5420   62.1837 H       1  ZINC000616491533    0.0800
     33 H33       -13.4529   -2.2845   61.9085 H       1  ZINC000616491533    0.0900
     34 H34       -12.0795    1.0811   60.5658 H       1  ZINC000616491533    0.0800
     35 H35       -10.9564    0.0844   59.5906 H       1  ZINC000616491533    0.0800
     36 H36       -10.2317   -1.0643   55.2286 H       1  ZINC000616491533    0.1400
     37 H37        -8.0268    2.2554   56.7048 H       1  ZINC000616491533    0.1300
     38 H38        -6.0782    2.2462   55.2015 H       1  ZINC000616491533    0.1400
     39 H39        -6.3147    1.4598   52.8814 H       1  ZINC000616491533    0.1300
     40 H40        -8.4989    0.6787   52.0587 H       1  ZINC000616491533    0.1400
     41 H41       -10.4519    0.6776   53.5564 H       1  ZINC000616491533    0.1300
     42 H42       -12.7279    2.8869   57.9468 H       1  ZINC000616491533    0.2100
     43 H43       -11.7107    0.5722   62.7864 H       1  ZINC000616491533    0.0800
     44 H44       -11.3269   -1.0667   63.3676 H       1  ZINC000616491533    0.0800
     45 H45        -9.6121    0.6445   61.5075 H       1  ZINC000616491533    0.0500
     46 H46        -9.2580    0.2523   63.2079 H       1  ZINC000616491533    0.1000
     47 H47        -9.4901   -1.1275   59.8595 H       1  ZINC000616491533    0.0500
     48 H48        -9.0506   -2.7658   60.4010 H       1  ZINC000616491533    0.1000
     49 H49       -11.1953   -2.9850   61.5829 H       1  ZINC000616491533    0.0800
     50 H50       -11.4962   -2.5484   59.8829 H       1  ZINC000616491533    0.0800
@<TRIPOS>BOND
     1     1     2    1
     2     1    29    1
     3     1    30    1
     4     1    31    1
     5     2     3    1
     6     2     7    1
     7     2     4    1
     8     4     5    1
     9     4    32    1
    10     4    33    1
    11     5    28    1
    12     5     6    1
    13     5    24    1
    14     6     7    1
    15     6    34    1
    16     6    35    1
    17     7     8   am
    18     8     9    2
    19     8    10    1
    20    10    23    1
    21    10    11    2
    22    11    12    1
    23    11    15    1
    24    12    13    1
    25    12    14    1
    26    12    36    1
    27    15    16    1
    28    15    22    1
    29    16    21   ar
    30    16    17   ar
    31    17    18   ar
    32    17    37    1
    33    18    19   ar
    34    18    38    1
    35    19    20   ar
    36    19    39    1
    37    20    21   ar
    38    20    40    1
    39    21    41    1
    40    22    23    2
    41    23    42    1
    42    24    25    1
    43    24    43    1
    44    24    44    1
    45    25    26    1
    46    25    45    1
    47    25    46    1
    48    26    27    1
    49    27    28    1
    50    27    47    1
    51    27    48    1
    52    28    49    1
    53    28    50    1
@<TRIPOS>SUBSTRUCTURE
     1 ZINC000616491533        1 TEMP              0 ****  ****    0 ROOT


##########                                Name:    ZINC000820901229
##########                DOCK_Rotatable_Bonds:                   3
##########                         Heavy_Atoms:                  18
##########                    Molecular_Weight:             331.233
##########                DOCK_Rotatable_Bonds:                   3
##########                       Formal_Charge:           0.0099999
##########                     HBond_Acceptors:                   5
##########                        HBond_Donors:                   1
##########                         Heavy_Atoms:                  18
##########                          Grid_Score:          -22.960505
##########                     Grid_vdw_energy:          -22.569775
##########                      Grid_es_energy:           -0.390730
##########           Internal_energy_repulsive:            3.026275

@<TRIPOS>MOLECULE
ZINC000820901229
 33 35 1 0 0
SMALL
USER_CHARGES


@<TRIPOS>ATOM
      1 O1        -13.3540   -2.4257   56.3268 O.2     1  ZINC000820901229   -0.5300
      2 C2        -13.4479   -3.4743   56.9361 C.2     1  ZINC000820901229    0.6000
      3 N3        -12.9976   -3.5599   58.2035 N.am    1  ZINC000820901229   -0.7100
      4 C4        -12.3896   -2.3918   58.8454 C.3     1  ZINC000820901229    0.1600
      5 H5        -12.6938   -1.4831   58.3257 H       1  ZINC000820901229    0.1000
      6 C6        -10.8580   -2.5201   58.8217 C.3     1  ZINC000820901229   -0.1300
      7 C7        -10.1882   -1.3515   59.5385 C.3     1  ZINC000820901229   -0.1100
      8 C8        -10.7186   -1.1950   60.9733 C.3     1  ZINC000820901229   -0.1100
      9 C9        -12.2192   -1.0098   60.8823 C.3     1  ZINC000820901229    0.0800
     10 H10       -12.4466   -0.1777   60.2158 H       1  ZINC000820901229    0.0700
     11 O11       -12.9402   -0.8592   62.1000 O.3     1  ZINC000820901229   -0.3700
     12 C12       -14.3227   -1.1380   61.7613 C.3     1  ZINC000820901229    0.0500
     13 C13       -14.3088   -2.0907   60.5379 C.3     1  ZINC000820901229   -0.1500
     14 C14       -12.8159   -2.3218   60.3012 C.3     1  ZINC000820901229   -0.1400
     15 H15       -12.4661   -3.1938   60.8536 H       1  ZINC000820901229    0.0900
     16 C16       -14.0589   -4.6485   56.2910 C.2     1  ZINC000820901229    0.0100
     17 C17       -14.1914   -5.8445   56.9068 C.2     1  ZINC000820901229   -0.2200
     18 S18       -14.9437   -6.9394   55.8311 S.3     1  ZINC000820901229    0.3100
     19 C19       -15.0385   -5.7383   54.6208 C.2     1  ZINC000820901229   -0.0100
     20 Br20      -15.7812   -5.9981   52.9013 Br      1  ZINC000820901229    0.0700
     21 N21       -14.5394   -4.6296   55.0442 N.2     1  ZINC000820901229   -0.4100
     22 H22       -13.0761   -4.3950   58.6907 H       1  ZINC000820901229    0.4100
     23 H23       -10.5709   -3.4503   59.3118 H       1  ZINC000820901229    0.0700
     24 H24       -10.5185   -2.5447   57.7863 H       1  ZINC000820901229    0.0700
     25 H25        -9.1124   -1.5237   59.5729 H       1  ZINC000820901229    0.0800
     26 H26       -10.3837   -0.4338   58.9840 H       1  ZINC000820901229    0.0700
     27 H27       -10.4900   -2.0896   61.5526 H       1  ZINC000820901229    0.0700
     28 H28       -10.2652   -0.3222   61.4430 H       1  ZINC000820901229    0.0800
     29 H29       -14.8208   -1.6207   62.6021 H       1  ZINC000820901229    0.0900
     30 H30       -14.8361   -0.2115   61.5045 H       1  ZINC000820901229    0.0600
     31 H31       -14.8085   -3.0300   60.7753 H       1  ZINC000820901229    0.0800
     32 H32       -14.7719   -1.6146   59.6736 H       1  ZINC000820901229    0.0800
     33 H33       -13.8733   -6.0714   57.9136 H       1  ZINC000820901229    0.2000
@<TRIPOS>BOND
     1     1     2    2
     2     2     3   am
     3     2    16    1
     4     3     4    1
     5     3    22    1
     6     4     5    1
     7     4    14    1
     8     4     6    1
     9     6     7    1
    10     6    23    1
    11     6    24    1
    12     7     8    1
    13     7    25    1
    14     7    26    1
    15     8     9    1
    16     8    27    1
    17     8    28    1
    18     9    10    1
    19     9    14    1
    20     9    11    1
    21    11    12    1
    22    12    13    1
    23    12    29    1
    24    12    30    1
    25    13    14    1
    26    13    31    1
    27    13    32    1
    28    14    15    1
    29    16    21    1
    30    16    17    2
    31    17    18    1
    32    17    33    1
    33    18    19    1
    34    19    20    1
    35    19    21    2
@<TRIPOS>SUBSTRUCTURE
     1 ZINC000820901229        1 TEMP              0 ****  ****    0 ROOT


##########                                Name:    ZINC000950547210
##########                DOCK_Rotatable_Bonds:                   5
##########                         Heavy_Atoms:                  25
##########                    Molecular_Weight:              346.47
##########                DOCK_Rotatable_Bonds:                   5
##########                       Formal_Charge:         5.58794e-07
##########                     HBond_Acceptors:                   5
##########                        HBond_Donors:                   1
##########                         Heavy_Atoms:                  25
##########                          Grid_Score:          -22.911804
##########                     Grid_vdw_energy:          -23.682985
##########                      Grid_es_energy:            0.771181
##########           Internal_energy_repulsive:           20.562473

@<TRIPOS>MOLECULE
ZINC000950547210
 55 58 1 0 0
SMALL
USER_CHARGES


@<TRIPOS>ATOM
      1 O1         -9.7052    0.3913   60.1001 O.2     1  ZINC000950547210   -0.5200
      2 C2        -10.5478   -0.3392   60.5769 C.2     1  ZINC000950547210    0.5200
      3 N3        -11.1173   -0.0299   61.7585 N.am    1  ZINC000950547210   -0.7300
      4 C4        -10.7143    1.1857   62.4700 C.3     1  ZINC000950547210    0.1300
      5 H5         -9.6847    1.4337   62.2121 H       1  ZINC000950547210    0.0900
      6 C6        -11.6340    2.3413   62.0686 C.3     1  ZINC000950547210   -0.1300
      7 C7        -11.1934    3.6191   62.7862 C.3     1  ZINC000950547210   -0.1300
      8 C8        -11.3065    3.4146   64.3002 C.3     1  ZINC000950547210    0.1000
      9 N9        -10.5407    2.2178   64.6743 N.am    1  ZINC000950547210   -0.6100
     10 C10        -9.5984    2.2784   65.6360 C.2     1  ZINC000950547210    0.5600
     11 O11        -9.3753    3.3308   66.2033 O.2     1  ZINC000950547210   -0.5200
     12 C12        -8.8398    1.0717   65.9995 C.2     1  ZINC000950547210   -0.1400
     13 C13        -9.4470    0.1183   66.6829 C.2     1  ZINC000950547210   -0.1500
     14 C14        -8.7497   -1.1441   67.1051 C.3     1  ZINC000950547210    0.0900
     15 O15        -7.5338   -1.3021   66.3714 O.3     1  ZINC000950547210   -0.3700
     16 C16        -6.7077   -0.1318   66.3937 C.3     1  ZINC000950547210    0.0600
     17 C17        -7.4009    0.9630   65.5751 C.3     1  ZINC000950547210   -0.1100
     18 C18       -10.8212    0.9534   63.9804 C.3     1  ZINC000950547210    0.1000
     19 C19       -10.9624   -1.5896   59.8450 C.3     1  ZINC000950547210   -0.1000
     20 H20       -10.8798   -2.4464   60.5138 H       1  ZINC000950547210    0.1000
     21 C21       -10.0504   -1.7979   58.6343 C.3     1  ZINC000950547210   -0.1100
     22 C22       -10.8912   -1.7955   57.3560 C.3     1  ZINC000950547210   -0.0900
     23 C23       -11.9201   -2.9261   57.4201 C.3     1  ZINC000950547210   -0.1100
     24 C24       -12.8320   -2.7177   58.6308 C.3     1  ZINC000950547210   -0.1100
     25 C25       -12.4112   -1.4482   59.3739 C.3     1  ZINC000950547210   -0.0600
     26 C26       -12.5271   -0.2456   58.4351 C.3     1  ZINC000950547210   -0.1300
     27 C27       -11.6151   -0.4540   57.2244 C.3     1  ZINC000950547210   -0.1200
     28 H28       -11.7941   -0.6122   62.1380 H       1  ZINC000950547210    0.4000
     29 H29       -11.5778    2.4923   60.9905 H       1  ZINC000950547210    0.0800
     30 H30       -12.6600    2.1028   62.3487 H       1  ZINC000950547210    0.0700
     31 H31       -10.1592    3.8444   62.5259 H       1  ZINC000950547210    0.0700
     32 H32       -11.8343    4.4466   62.4820 H       1  ZINC000950547210    0.0900
     33 H33       -10.9014    4.2842   64.8177 H       1  ZINC000950547210    0.0900
     34 H34       -12.3530    3.2790   64.5735 H       1  ZINC000950547210    0.0700
     35 H35       -10.4852    0.2515   66.9491 H       1  ZINC000950547210    0.1200
     36 H36        -8.5252   -1.0941   68.1705 H       1  ZINC000950547210    0.0700
     37 H37        -9.4005   -1.9974   66.9144 H       1  ZINC000950547210    0.1100
     38 H38        -6.5750    0.2034   67.4224 H       1  ZINC000950547210    0.0600
     39 H39        -5.7377   -0.3596   65.9515 H       1  ZINC000950547210    0.1000
     40 H40        -7.3465    0.7132   64.5155 H       1  ZINC000950547210    0.0900
     41 H41        -6.9026    1.9167   65.7490 H       1  ZINC000950547210    0.0900
     42 H42       -11.8281    0.6167   64.2272 H       1  ZINC000950547210    0.0700
     43 H43       -10.0962    0.1996   64.2873 H       1  ZINC000950547210    0.1000
     44 H44        -9.3175   -0.9925   58.5886 H       1  ZINC000950547210    0.0700
     45 H45        -9.5347   -2.7536   58.7280 H       1  ZINC000950547210    0.0700
     46 H46       -10.2415   -1.9439   56.4935 H       1  ZINC000950547210    0.0700
     47 H47       -12.5191   -2.9243   56.5095 H       1  ZINC000950547210    0.0600
     48 H48       -11.4043   -3.8818   57.5139 H       1  ZINC000950547210    0.0600
     49 H49       -13.8642   -2.6170   58.2952 H       1  ZINC000950547210    0.0700
     50 H50       -12.7494   -3.5745   59.2996 H       1  ZINC000950547210    0.0600
     51 H51       -13.0608   -1.2998   60.2364 H       1  ZINC000950547210    0.0800
     52 H52       -13.5593   -0.1449   58.0994 H       1  ZINC000950547210    0.0600
     53 H53       -12.2273    0.6588   58.9644 H       1  ZINC000950547210    0.0900
     54 H54       -10.8822    0.3515   57.1787 H       1  ZINC000950547210    0.0600
     55 H55       -12.2142   -0.4523   56.3137 H       1  ZINC000950547210    0.0600
@<TRIPOS>BOND
     1     1     2    2
     2     2     3   am
     3     2    19    1
     4     3     4    1
     5     3    28    1
     6     4     5    1
     7     4    18    1
     8     4     6    1
     9     6     7    1
    10     6    29    1
    11     6    30    1
    12     7     8    1
    13     7    31    1
    14     7    32    1
    15     8     9    1
    16     8    33    1
    17     8    34    1
    18     9    10   am
    19     9    18    1
    20    10    11    2
    21    10    12    1
    22    12    17    1
    23    12    13    2
    24    13    14    1
    25    13    35    1
    26    14    15    1
    27    14    36    1
    28    14    37    1
    29    15    16    1
    30    16    17    1
    31    16    38    1
    32    16    39    1
    33    17    40    1
    34    17    41    1
    35    18    42    1
    36    18    43    1
    37    19    20    1
    38    19    25    1
    39    19    21    1
    40    21    22    1
    41    21    44    1
    42    21    45    1
    43    22    27    1
    44    22    23    1
    45    22    46    1
    46    23    24    1
    47    23    47    1
    48    23    48    1
    49    24    25    1
    50    24    49    1
    51    24    50    1
    52    25    26    1
    53    25    51    1
    54    26    27    1
    55    26    52    1
    56    26    53    1
    57    27    54    1
    58    27    55    1
@<TRIPOS>SUBSTRUCTURE
     1 ZINC000950547210        1 TEMP              0 ****  ****    0 ROOT


##########                                Name:    ZINC000541315701
##########                DOCK_Rotatable_Bonds:                   4
##########                         Heavy_Atoms:                  25
##########                    Molecular_Weight:             422.709
##########                DOCK_Rotatable_Bonds:                   4
##########                       Formal_Charge:           0.0300003
##########                     HBond_Acceptors:                   6
##########                        HBond_Donors:                   0
##########                         Heavy_Atoms:                  25
##########                          Grid_Score:          -22.840185
##########                     Grid_vdw_energy:          -22.966314
##########                      Grid_es_energy:            0.126129
##########           Internal_energy_repulsive:           19.015306

@<TRIPOS>MOLECULE
ZINC000541315701
 42 44 1 0 0
SMALL
USER_CHARGES


@<TRIPOS>ATOM
      1 C1        -13.8113   -5.0662   56.6801 C.3     1  ZINC000541315701    0.0800
      2 N2        -13.8730   -3.7396   57.2986 N.am    1  ZINC000541315701   -0.5700
      3 C3        -14.8210   -3.4678   58.2172 C.2     1  ZINC000541315701    0.5400
      4 O4        -15.6229   -4.3214   58.5319 O.2     1  ZINC000541315701   -0.5000
      5 C5        -14.8845   -2.1031   58.8533 C.3     1  ZINC000541315701   -0.1100
      6 H6        -14.2394   -1.3994   58.3272 H       1  ZINC000541315701    0.1300
      7 C7        -16.3404   -1.5851   58.9076 C.3     1  ZINC000541315701   -0.1500
      8 C8        -16.8347   -2.0101   60.2727 C.2     1  ZINC000541315701    0.5200
      9 O9        -17.9994   -2.0485   60.6088 O.2     1  ZINC000541315701   -0.5200
     10 N10       -15.7953   -2.3394   61.0589 N.am    1  ZINC000541315701   -0.6100
     11 C11       -15.9201   -2.8036   62.4428 C.3     1  ZINC000541315701    0.0900
     12 C12       -14.5184   -2.1742   60.3524 C.3     1  ZINC000541315701    0.1900
     13 H13       -13.8690   -3.0288   60.5423 H       1  ZINC000541315701    0.1100
     14 C14       -13.8426   -0.8997   60.7878 C.ar    1  ZINC000541315701   -0.0900
     15 C15       -14.6025    0.1855   61.1820 C.ar    1  ZINC000541315701   -0.1000
     16 C16       -13.9832    1.3551   61.5821 C.ar    1  ZINC000541315701   -0.1000
     17 C17       -12.6039    1.4400   61.5876 C.ar    1  ZINC000541315701   -0.1000
     18 C18       -11.8426    0.3539   61.1932 C.ar    1  ZINC000541315701   -0.0300
     19 Cl19      -10.1098    0.4595   61.2005 Cl      1  ZINC000541315701   -0.0600
     20 C20       -12.4627   -0.8179   60.7984 C.ar    1  ZINC000541315701   -0.0900
     21 C21       -12.9511   -2.7581   56.9366 C.ar    1  ZINC000541315701    0.3800
     22 N22       -13.3204   -1.7780   56.1278 N.ar    1  ZINC000541315701   -0.4700
     23 C23       -12.4799   -0.8294   55.7609 C.ar    1  ZINC000541315701    0.1300
     24 C24       -11.1749   -0.8260   56.2118 C.ar    1  ZINC000541315701   -0.1600
     25 C25       -10.7468   -1.8364   57.0622 C.ar    1  ZINC000541315701   -0.0400
     26 C26       -11.6530   -2.8147   57.4337 C.ar    1  ZINC000541315701   -0.1300
     27 Br27      -11.1297   -4.2165   58.5900 Br      1  ZINC000541315701   -0.0200
     28 H28       -14.8202   -5.4646   56.5734 H       1  ZINC000541315701    0.0900
     29 H29       -13.3458   -4.9878   55.6975 H       1  ZINC000541315701    0.0800
     30 H30       -13.2218   -5.7332   57.3091 H       1  ZINC000541315701    0.0700
     31 H31       -16.3627   -0.4993   58.8148 H       1  ZINC000541315701    0.1200
     32 H32       -16.9396   -2.0483   58.1236 H       1  ZINC000541315701    0.1100
     33 H33       -16.9733   -2.8358   62.7216 H       1  ZINC000541315701    0.0900
     34 H34       -15.4900   -3.8012   62.5316 H       1  ZINC000541315701    0.0700
     35 H35       -15.3898   -2.1190   63.1048 H       1  ZINC000541315701    0.0600
     36 H36       -15.6805    0.1199   61.1771 H       1  ZINC000541315701    0.1300
     37 H37       -14.5775    2.2028   61.8900 H       1  ZINC000541315701    0.1400
     38 H38       -12.1202    2.3539   61.8995 H       1  ZINC000541315701    0.1400
     39 H39       -11.8691   -1.6659   60.4905 H       1  ZINC000541315701    0.1400
     40 H40       -12.8171   -0.0454   55.0989 H       1  ZINC000541315701    0.1700
     41 H41       -10.4941   -0.0454   55.9058 H       1  ZINC000541315701    0.1500
     42 H42        -9.7312   -1.8563   57.4288 H       1  ZINC000541315701    0.1500
@<TRIPOS>BOND
     1     1     2    1
     2     1    28    1
     3     1    29    1
     4     1    30    1
     5     2     3   am
     6     2    21    1
     7     3     4    2
     8     3     5    1
     9     5     6    1
    10     5    12    1
    11     5     7    1
    12     7     8    1
    13     7    31    1
    14     7    32    1
    15     8     9    2
    16     8    10   am
    17    10    11    1
    18    10    12    1
    19    11    33    1
    20    11    34    1
    21    11    35    1
    22    12    13    1
    23    12    14    1
    24    14    20   ar
    25    14    15   ar
    26    15    16   ar
    27    15    36    1
    28    16    17   ar
    29    16    37    1
    30    17    18   ar
    31    17    38    1
    32    18    19    1
    33    18    20   ar
    34    20    39    1
    35    21    26   ar
    36    21    22   ar
    37    22    23   ar
    38    23    24   ar
    39    23    40    1
    40    24    25   ar
    41    24    41    1
    42    25    26   ar
    43    25    42    1
    44    26    27    1
@<TRIPOS>SUBSTRUCTURE
     1 ZINC000541315701        1 TEMP              0 ****  ****    0 ROOT


##########                                Name:    ZINC000462219577
##########                DOCK_Rotatable_Bonds:                   8
##########                         Heavy_Atoms:                  31
##########                    Molecular_Weight:             418.539
##########                DOCK_Rotatable_Bonds:                   8
##########                       Formal_Charge:         -0.00999914
##########                     HBond_Acceptors:                   6
##########                        HBond_Donors:                   2
##########                         Heavy_Atoms:                  31
##########                          Grid_Score:          -22.664667
##########                     Grid_vdw_energy:          -23.367968
##########                      Grid_es_energy:            0.703301
##########           Internal_energy_repulsive:           16.187851

@<TRIPOS>MOLECULE
ZINC000462219577
 61 64 1 0 0
SMALL
USER_CHARGES


@<TRIPOS>ATOM
      1 C1        -18.4960    0.4856   58.6346 C.3     1  ZINC000462219577   -0.0700
      2 C2        -17.5919   -0.6852   58.9227 C.2     1  ZINC000462219577    0.0800
      3 N3        -17.0473   -1.4716   58.0295 N.2     1  ZINC000462219577   -0.2900
      4 N4        -16.2803   -2.4323   58.7012 N.pl3   1  ZINC000462219577   -0.3200
      5 C5        -15.5360   -3.4590   58.1036 C.ar    1  ZINC000462219577    0.1500
      6 C6        -14.4671   -3.1505   57.2731 C.ar    1  ZINC000462219577   -0.1100
      7 C7        -13.7358   -4.1643   56.6857 C.ar    1  ZINC000462219577   -0.1000
      8 C8        -14.0676   -5.4855   56.9238 C.ar    1  ZINC000462219577   -0.1200
      9 C9        -15.1320   -5.7959   57.7501 C.ar    1  ZINC000462219577   -0.1000
     10 C10       -15.8629   -4.7865   58.3455 C.ar    1  ZINC000462219577   -0.1300
     11 C11       -16.3847   -2.1936   60.0282 C.2     1  ZINC000462219577    0.0900
     12 C12       -15.7227   -2.9830   61.1279 C.3     1  ZINC000462219577   -0.0800
     13 C13       -14.3973   -2.3184   61.5059 C.3     1  ZINC000462219577    0.1700
     14 H14       -13.7162   -3.0687   61.9073 H       1  ZINC000462219577    0.1000
     15 C15       -14.6501   -1.2414   62.5630 C.3     1  ZINC000462219577   -0.1600
     16 N16       -13.8020   -1.7048   60.3163 N.am    1  ZINC000462219577   -0.7400
     17 C17       -12.4667   -1.7394   60.1369 C.2     1  ZINC000462219577    0.7100
     18 O18       -11.7563   -2.2810   60.9617 O.2     1  ZINC000462219577   -0.5800
     19 N19       -11.9188   -1.1734   59.0432 N.am    1  ZINC000462219577   -0.7400
     20 C20       -10.4675   -1.2125   58.8474 C.3     1  ZINC000462219577    0.1600
     21 H21        -9.9763   -1.4113   59.7999 H       1  ZINC000462219577    0.1000
     22 C22       -10.1148   -2.3188   57.8483 C.3     1  ZINC000462219577   -0.1700
     23 C23       -10.7462   -1.9914   56.4926 C.3     1  ZINC000462219577    0.0700
     24 O24       -10.2830   -0.7145   56.0488 O.3     1  ZINC000462219577   -0.3700
     25 C25       -10.6252    0.3653   56.9200 C.3     1  ZINC000462219577    0.1400
     26 H26       -11.7088    0.4179   57.0257 H       1  ZINC000462219577    0.0600
     27 C27       -10.1134    1.6594   56.3414 C.ar    1  ZINC000462219577   -0.0900
     28 C28        -8.8025    1.7545   55.9133 C.ar    1  ZINC000462219577   -0.0900
     29 C29        -8.3331    2.9415   55.3825 C.ar    1  ZINC000462219577   -0.1200
     30 C30        -9.1747    4.0332   55.2796 C.ar    1  ZINC000462219577   -0.1200
     31 C31       -10.4860    3.9378   55.7069 C.ar    1  ZINC000462219577   -0.1200
     32 C32       -10.9565    2.7495   56.2336 C.ar    1  ZINC000462219577   -0.1100
     33 C33        -9.9886    0.1336   58.2949 C.3     1  ZINC000462219577   -0.1500
     34 C34       -17.1853   -1.1149   60.1906 C.2     1  ZINC000462219577   -0.2600
     35 H35       -17.8954    1.3870   58.5126 H       1  ZINC000462219577    0.0800
     36 H36       -19.0562    0.2954   57.7191 H       1  ZINC000462219577    0.0700
     37 H37       -19.1903    0.6211   59.4639 H       1  ZINC000462219577    0.0800
     38 H38       -14.2079   -2.1189   57.0863 H       1  ZINC000462219577    0.1300
     39 H39       -12.9041   -3.9250   56.0396 H       1  ZINC000462219577    0.1300
     40 H40       -13.4944   -6.2764   56.4630 H       1  ZINC000462219577    0.1300
     41 H41       -15.3892   -6.8285   57.9335 H       1  ZINC000462219577    0.1300
     42 H42       -16.6941   -5.0295   58.9909 H       1  ZINC000462219577    0.1300
     43 H43       -16.3767   -3.0110   61.9995 H       1  ZINC000462219577    0.0900
     44 H44       -15.5339   -3.9995   60.7826 H       1  ZINC000462219577    0.1100
     45 H45       -15.3314   -0.4912   62.1615 H       1  ZINC000462219577    0.0600
     46 H46       -15.0930   -1.6980   63.4480 H       1  ZINC000462219577    0.0700
     47 H47       -13.7060   -0.7680   62.8322 H       1  ZINC000462219577    0.0700
     48 H48       -14.3688   -1.2738   59.6577 H       1  ZINC000462219577    0.3900
     49 H49       -12.4855   -0.7403   58.3858 H       1  ZINC000462219577    0.3900
     50 H50        -9.0319   -2.3804   57.7404 H       1  ZINC000462219577    0.0800
     51 H51       -10.5008   -3.2721   58.2092 H       1  ZINC000462219577    0.0800
     52 H52       -10.4631   -2.7534   55.7663 H       1  ZINC000462219577    0.1000
     53 H53       -11.8314   -1.9698   56.5927 H       1  ZINC000462219577    0.0500
     54 H54        -8.1449    0.9016   55.9937 H       1  ZINC000462219577    0.1300
     55 H55        -7.3088    3.0159   55.0486 H       1  ZINC000462219577    0.1200
     56 H56        -8.8079    4.9607   54.8655 H       1  ZINC000462219577    0.1200
     57 H57       -11.1434    4.7909   55.6267 H       1  ZINC000462219577    0.1200
     58 H58       -11.9809    2.6750   56.5675 H       1  ZINC000462219577    0.1200
     59 H59       -10.2849    0.9338   58.9731 H       1  ZINC000462219577    0.0800
     60 H60        -8.9031    0.1215   58.1964 H       1  ZINC000462219577    0.0900
     61 H61       -17.4667   -0.6688   61.1331 H       1  ZINC000462219577    0.1500
@<TRIPOS>BOND
     1     1     2    1
     2     1    35    1
     3     1    36    1
     4     1    37    1
     5     2    34    1
     6     2     3    2
     7     3     4    1
     8     4     5    1
     9     4    11    1
    10     5    10   ar
    11     5     6   ar
    12     6     7   ar
    13     6    38    1
    14     7     8   ar
    15     7    39    1
    16     8     9   ar
    17     8    40    1
    18     9    10   ar
    19     9    41    1
    20    10    42    1
    21    11    12    1
    22    11    34    2
    23    12    13    1
    24    12    43    1
    25    12    44    1
    26    13    14    1
    27    13    15    1
    28    13    16    1
    29    15    45    1
    30    15    46    1
    31    15    47    1
    32    16    17   am
    33    16    48    1
    34    17    18    2
    35    17    19   am
    36    19    20    1
    37    19    49    1
    38    20    21    1
    39    20    33    1
    40    20    22    1
    41    22    23    1
    42    22    50    1
    43    22    51    1
    44    23    24    1
    45    23    52    1
    46    23    53    1
    47    24    25    1
    48    25    26    1
    49    25    27    1
    50    25    33    1
    51    27    32   ar
    52    27    28   ar
    53    28    29   ar
    54    28    54    1
    55    29    30   ar
    56    29    55    1
    57    30    31   ar
    58    30    56    1
    59    31    32   ar
    60    31    57    1
    61    32    58    1
    62    33    59    1
    63    33    60    1
    64    34    61    1
@<TRIPOS>SUBSTRUCTURE
     1 ZINC000462219577        1 TEMP              0 ****  ****    0 ROOT


##########                                Name:    ZINC001010141213
##########                DOCK_Rotatable_Bonds:                   4
##########                         Heavy_Atoms:                  24
##########                    Molecular_Weight:             330.346
##########                DOCK_Rotatable_Bonds:                   4
##########                       Formal_Charge:          -0.0100003
##########                     HBond_Acceptors:                   9
##########                        HBond_Donors:                   1
##########                         Heavy_Atoms:                  24
##########                          Grid_Score:          -22.596117
##########                     Grid_vdw_energy:          -21.471870
##########                      Grid_es_energy:           -1.124246
##########           Internal_energy_repulsive:           20.362675

@<TRIPOS>MOLECULE
ZINC001010141213
 42 44 1 0 0
SMALL
USER_CHARGES


@<TRIPOS>ATOM
      1 C1         -7.1764    1.3161   53.8269 C.3     1  ZINC001010141213   -0.0800
      2 C2         -7.9926    2.2771   54.6525 C.2     1  ZINC001010141213   -0.1500
      3 C3         -9.1933    2.0234   55.2924 C.2     1  ZINC001010141213   -0.0400
      4 C4         -9.9368    0.7534   55.3043 C.2     1  ZINC001010141213    0.6000
      5 O5        -10.4893    0.3626   54.2937 O.2     1  ZINC001010141213   -0.5100
      6 N6        -10.0053    0.0233   56.4351 N.am    1  ZINC001010141213   -0.6100
      7 C7         -9.3477    0.4861   57.6652 C.3     1  ZINC001010141213    0.0900
      8 C8        -10.3921    0.5448   58.7869 C.3     1  ZINC001010141213    0.0700
      9 N9        -11.1262   -0.7282   58.8121 N.am    1  ZINC001010141213   -0.6000
     10 C10       -11.1956   -1.4577   59.9431 C.2     1  ZINC001010141213    0.5900
     11 O11       -11.8057   -2.5090   59.9517 O.2     1  ZINC001010141213   -0.5200
     12 C12       -10.5295   -0.9793   61.1737 C.2     1  ZINC001010141213    0.0300
     13 N13        -9.5607   -1.6859   61.7111 N.2     1  ZINC001010141213   -0.1800
     14 N14        -8.9515   -1.3137   62.7782 N.am    1  ZINC001010141213   -0.4400
     15 C15        -9.2696   -0.1712   63.4148 C.2     1  ZINC001010141213    0.4800
     16 O16        -8.6716    0.1550   64.4267 O.2     1  ZINC001010141213   -0.5100
     17 C17       -10.3007    0.6477   62.9029 C.2     1  ZINC001010141213   -0.1800
     18 C18       -10.9338    0.2415   61.7659 C.2     1  ZINC001010141213   -0.0400
     19 C19       -11.7838   -1.1910   57.5819 C.3     1  ZINC001010141213    0.1000
     20 C20       -10.7441   -1.2469   56.4618 C.3     1  ZINC001010141213    0.1000
     21 N21        -9.5500    3.1881   55.9106 N.pl3   1  ZINC001010141213   -0.2700
     22 C22       -10.7610    3.3821   56.7119 C.3     1  ZINC001010141213    0.0900
     23 N23        -8.6613    4.0870   55.6827 N.2     1  ZINC001010141213   -0.2800
     24 C24        -7.6949    3.6111   54.9398 C.2     1  ZINC001010141213    0.0100
     25 H25        -6.4726    0.7899   54.4718 H       1  ZINC001010141213    0.0700
     26 H26        -7.8389    0.5953   53.3478 H       1  ZINC001010141213    0.0600
     27 H27        -6.6275    1.8681   53.0640 H       1  ZINC001010141213    0.0700
     28 H28        -8.5546   -0.2093   57.9399 H       1  ZINC001010141213    0.0800
     29 H29        -8.9277    1.4789   57.5042 H       1  ZINC001010141213    0.1000
     30 H30        -9.8931    0.6982   59.7437 H       1  ZINC001010141213    0.1400
     31 H31       -11.0862    1.3637   58.5981 H       1  ZINC001010141213    0.0800
     32 H32        -8.2426   -1.8713   63.1355 H       1  ZINC001010141213    0.4500
     33 H33       -10.5756    1.5692   63.3944 H       1  ZINC001010141213    0.1700
     34 H34       -11.7285    0.8311   61.3332 H       1  ZINC001010141213    0.1700
     35 H35       -12.2039   -2.1838   57.7429 H       1  ZINC001010141213    0.1100
     36 H36       -12.5770   -0.4956   57.3072 H       1  ZINC001010141213    0.0800
     37 H37       -11.2445   -1.4003   55.5056 H       1  ZINC001010141213    0.1100
     38 H38       -10.0485   -2.0648   56.6488 H       1  ZINC001010141213    0.0800
     39 H39       -10.5291    3.2240   57.7651 H       1  ZINC001010141213    0.0900
     40 H40       -11.1319    4.3972   56.5698 H       1  ZINC001010141213    0.1000
     41 H41       -11.5232    2.6694   56.3968 H       1  ZINC001010141213    0.0900
     42 H42        -6.8250    4.1553   54.6027 H       1  ZINC001010141213    0.1900
@<TRIPOS>BOND
     1     1     2    1
     2     1    25    1
     3     1    26    1
     4     1    27    1
     5     2    24    1
     6     2     3    2
     7     3     4    1
     8     3    21    1
     9     4     5    2
    10     4     6   am
    11     6    20    1
    12     6     7    1
    13     7     8    1
    14     7    28    1
    15     7    29    1
    16     8     9    1
    17     8    30    1
    18     8    31    1
    19     9    10   am
    20     9    19    1
    21    10    11    2
    22    10    12    1
    23    12    18    1
    24    12    13    2
    25    13    14    1
    26    14    15   am
    27    14    32    1
    28    15    16    2
    29    15    17    1
    30    17    18    2
    31    17    33    1
    32    18    34    1
    33    19    20    1
    34    19    35    1
    35    19    36    1
    36    20    37    1
    37    20    38    1
    38    21    22    1
    39    21    23    1
    40    22    39    1
    41    22    40    1
    42    22    41    1
    43    23    24    2
    44    24    42    1
@<TRIPOS>SUBSTRUCTURE
     1 ZINC001010141213        1 TEMP              0 ****  ****    0 ROOT


##########                                Name:    ZINC000864477301
##########                DOCK_Rotatable_Bonds:                   6
##########                         Heavy_Atoms:                  26
##########                    Molecular_Weight:             393.891
##########                DOCK_Rotatable_Bonds:                   6
##########                       Formal_Charge:         -0.00999978
##########                     HBond_Acceptors:                   7
##########                        HBond_Donors:                   1
##########                         Heavy_Atoms:                  26
##########                          Grid_Score:          -22.493107
##########                     Grid_vdw_energy:          -20.256565
##########                      Grid_es_energy:           -2.236543
##########           Internal_energy_repulsive:            8.986801

@<TRIPOS>MOLECULE
ZINC000864477301
 46 47 1 0 0
SMALL
USER_CHARGES


@<TRIPOS>ATOM
      1 C1        -11.6764    1.5176   50.9854 C.3     1  ZINC000864477301   -0.1500
      2 C2        -11.0689    1.0884   52.3224 C.3     1  ZINC000864477301    0.0600
      3 O3        -10.1739   -0.0348   52.1090 O.3     1  ZINC000864477301   -0.3500
      4 C4         -8.8869    0.1312   52.4706 C.2     1  ZINC000864477301    0.5100
      5 O5         -8.0013   -0.3823   51.8167 O.2     1  ZINC000864477301   -0.5000
      6 C6         -8.5525    0.9377   53.6622 C.ar    1  ZINC000864477301   -0.1400
      7 C7         -7.7921    2.1011   53.5307 C.ar    1  ZINC000864477301   -0.0300
      8 C8         -7.4834    2.8495   54.6479 C.ar    1  ZINC000864477301   -0.1500
      9 C9         -7.9251    2.4493   55.8962 C.ar    1  ZINC000864477301   -0.0100
     10 C10        -8.6793    1.2972   56.0338 C.ar    1  ZINC000864477301   -0.4900
     11 S11        -9.2368    0.7967   57.6286 S.o     1  ZINC000864477301    1.3800
     12 O12        -9.4350   -0.6019   57.4736 O.2     1  ZINC000864477301   -0.8100
     13 C13       -10.8451    1.6226   57.7764 C.3     1  ZINC000864477301   -0.4600
     14 H14       -10.6990    2.7026   57.7892 H       1  ZINC000864477301    0.1400
     15 C15       -11.7257    1.2410   56.5850 C.3     1  ZINC000864477301   -0.1400
     16 C16       -11.5156    1.1912   59.0552 C.2     1  ZINC000864477301    0.5500
     17 O17       -12.3469    0.3081   59.0361 O.2     1  ZINC000864477301   -0.5100
     18 N18       -11.1917    1.7866   60.2201 N.am    1  ZINC000864477301   -0.6800
     19 C19       -11.8146    1.3859   61.4079 C.ar    1  ZINC000864477301    0.1400
     20 C20       -11.2240    0.4204   62.2116 C.ar    1  ZINC000864477301   -0.0600
     21 C21        -9.9109   -0.1980   61.8063 C.3     1  ZINC000864477301   -0.1100
     22 C22       -11.8408    0.0273   63.3837 C.ar    1  ZINC000864477301   -0.1100
     23 C23       -13.0453    0.5941   63.7570 C.ar    1  ZINC000864477301   -0.1000
     24 C24       -13.6373    1.5561   62.9588 C.ar    1  ZINC000864477301   -0.1100
     25 C25       -13.0229    1.9581   61.7883 C.ar    1  ZINC000864477301   -0.0200
     26 Cl26      -13.7659    3.1660   60.7870 Cl      1  ZINC000864477301   -0.0600
     27 C27        -9.0005    0.5429   54.9246 C.ar    1  ZINC000864477301    0.0100
     28 H28       -10.8798    1.8125   50.3023 H       1  ZINC000864477301    0.0700
     29 H29       -12.2339    0.6853   50.5558 H       1  ZINC000864477301    0.0700
     30 H30       -12.3483    2.3608   51.1456 H       1  ZINC000864477301    0.0800
     31 H31       -10.5115    1.9206   52.7521 H       1  ZINC000864477301    0.0700
     32 H32       -11.8655    0.7935   53.0055 H       1  ZINC000864477301    0.0700
     33 H33        -7.4460    2.4143   52.5568 H       1  ZINC000864477301    0.1400
     34 H34        -6.8951    3.7497   54.5475 H       1  ZINC000864477301    0.1400
     35 H35        -7.6800    3.0384   56.7675 H       1  ZINC000864477301    0.1500
     36 H36       -12.6922    1.7373   56.6738 H       1  ZINC000864477301    0.0700
     37 H37       -11.2408    1.5531   55.6600 H       1  ZINC000864477301    0.0700
     38 H38       -11.8718    0.1609   56.5721 H       1  ZINC000864477301    0.0700
     39 H39       -10.5270    2.4930   60.2354 H       1  ZINC000864477301    0.4100
     40 H40        -9.0902    0.3876   62.2206 H       1  ZINC000864477301    0.0800
     41 H41        -9.8572   -1.2183   62.1860 H       1  ZINC000864477301    0.0700
     42 H42        -9.8354   -0.2106   60.7189 H       1  ZINC000864477301    0.0700
     43 H43       -11.3817   -0.7241   64.0089 H       1  ZINC000864477301    0.1400
     44 H44       -13.5251    0.2848   64.6737 H       1  ZINC000864477301    0.1400
     45 H45       -14.5784    1.9968   63.2532 H       1  ZINC000864477301    0.1400
     46 H46        -9.5894   -0.3559   55.0332 H       1  ZINC000864477301    0.1400
@<TRIPOS>BOND
     1     1     2    1
     2     1    28    1
     3     1    29    1
     4     1    30    1
     5     2     3    1
     6     2    31    1
     7     2    32    1
     8     3     4    1
     9     4     5    2
    10     4     6    1
    11     6    27   ar
    12     6     7   ar
    13     7     8   ar
    14     7    33    1
    15     8     9   ar
    16     8    34    1
    17     9    10   ar
    18     9    35    1
    19    10    11    1
    20    10    27   ar
    21    11    12    2
    22    11    13    1
    23    13    14    1
    24    13    15    1
    25    13    16    1
    26    15    36    1
    27    15    37    1
    28    15    38    1
    29    16    17    2
    30    16    18   am
    31    18    19    1
    32    18    39    1
    33    19    25   ar
    34    19    20   ar
    35    20    21    1
    36    20    22   ar
    37    21    40    1
    38    21    41    1
    39    21    42    1
    40    22    23   ar
    41    22    43    1
    42    23    24   ar
    43    23    44    1
    44    24    25   ar
    45    24    45    1
    46    25    26    1
    47    27    46    1
@<TRIPOS>SUBSTRUCTURE
     1 ZINC000864477301        1 TEMP              0 ****  ****    0 ROOT


##########                                Name:    ZINC001076281847
##########                DOCK_Rotatable_Bonds:                   4
##########                         Heavy_Atoms:                  24
##########                    Molecular_Weight:             362.883
##########                DOCK_Rotatable_Bonds:                   4
##########                       Formal_Charge:         -0.00999959
##########                     HBond_Acceptors:                   7
##########                        HBond_Donors:                   0
##########                         Heavy_Atoms:                  24
##########                          Grid_Score:          -22.451633
##########                     Grid_vdw_energy:          -21.489977
##########                      Grid_es_energy:           -0.961658
##########           Internal_energy_repulsive:            6.667448

@<TRIPOS>MOLECULE
ZINC001076281847
 43 46 1 0 0
SMALL
USER_CHARGES


@<TRIPOS>ATOM
      1 C1          0.9912    5.0962   52.6132 C.3     1  ZINC001076281847   -0.0900
      2 C2          0.1486    4.3713   51.5956 C.2     1  ZINC001076281847    0.1400
      3 N3         -1.1385    4.5472   51.5280 N.2     1  ZINC001076281847   -0.4600
      4 S4         -1.7119    3.5659   50.2690 S.3     1  ZINC001076281847    0.2500
      5 C5         -0.1756    2.9191   49.8431 C.2     1  ZINC001076281847   -0.2100
      6 C6          0.1244    1.9237   48.7520 C.3     1  ZINC001076281847    0.1200
      7 N7         -0.7071    2.2193   47.5776 N.3     1  ZINC001076281847   -0.5000
      8 C8         -1.1150    0.9812   46.8953 C.3     1  ZINC001076281847    0.0300
      9 C9         -1.0467    1.2635   45.3825 C.3     1  ZINC001076281847   -0.1000
     10 H10        -2.0074    1.5431   44.9501 H       1  ZINC001076281847    0.1200
     11 C11        -0.3903    0.0406   44.6895 C.3     1  ZINC001076281847   -0.1300
     12 C12         1.0954    0.2088   45.0927 C.3     1  ZINC001076281847    0.1000
     13 N13         1.3311    1.6635   45.0645 N.am    1  ZINC001076281847   -0.6000
     14 C14         2.5255    2.2613   44.8844 C.2     1  ZINC001076281847    0.5700
     15 O15         2.6034    3.4740   44.8793 O.2     1  ZINC001076281847   -0.4900
     16 C16         3.7429    1.4404   44.6928 C.ar    1  ZINC001076281847   -0.0800
     17 C17         3.9697    0.7606   43.4923 C.ar    1  ZINC001076281847   -0.1800
     18 C18         5.1191    0.0065   43.3561 C.ar    1  ZINC001076281847    0.1000
     19 N19         5.9949   -0.0772   44.3376 N.ar    1  ZINC001076281847   -0.4500
     20 C20         5.8213    0.5466   45.4854 C.ar    1  ZINC001076281847    0.1100
     21 C21         4.7017    1.3280   45.7063 C.ar    1  ZINC001076281847   -0.0500
     22 Cl22        4.4827    2.1463   47.2217 Cl      1  ZINC001076281847   -0.0100
     23 C23         0.0352    2.3711   45.2668 C.3     1  ZINC001076281847    0.1000
     24 H24        -0.1716    3.0605   44.4481 H       1  ZINC001076281847    0.1100
     25 C25         0.0109    3.0816   46.6271 C.3     1  ZINC001076281847    0.0200
     26 C26         0.7062    3.4955   50.6895 C.2     1  ZINC001076281847   -0.1800
     27 H27         1.3979    6.0041   52.1678 H       1  ZINC001076281847    0.0700
     28 H28         0.3762    5.3578   53.4743 H       1  ZINC001076281847    0.0800
     29 H29         1.8092    4.4508   52.9337 H       1  ZINC001076281847    0.0900
     30 H30         1.1772    1.9911   48.4782 H       1  ZINC001076281847    0.1000
     31 H31        -0.0947    0.9172   49.1083 H       1  ZINC001076281847    0.1000
     32 H32        -0.4335    0.1709   47.1544 H       1  ZINC001076281847    0.0600
     33 H33        -2.1336    0.7173   47.1796 H       1  ZINC001076281847    0.0900
     34 H34        -0.7968   -0.8929   45.0786 H       1  ZINC001076281847    0.0900
     35 H35        -0.5094    0.0950   43.6074 H       1  ZINC001076281847    0.0800
     36 H36         1.2630   -0.1835   46.0957 H       1  ZINC001076281847    0.0800
     37 H37         1.7427   -0.2945   44.3745 H       1  ZINC001076281847    0.0800
     38 H38         3.2568    0.8237   42.6834 H       1  ZINC001076281847    0.1800
     39 H39         5.3024   -0.5224   42.4324 H       1  ZINC001076281847    0.1700
     40 H40         6.5653    0.4498   46.2623 H       1  ZINC001076281847    0.1700
     41 H41        -0.4883    4.0458   46.5306 H       1  ZINC001076281847    0.1000
     42 H42         1.0302    3.2286   46.9844 H       1  ZINC001076281847    0.0700
     43 H43         1.7645    3.2814   50.6623 H       1  ZINC001076281847    0.1400
@<TRIPOS>BOND
     1     1     2    1
     2     1    27    1
     3     1    28    1
     4     1    29    1
     5     2    26    1
     6     2     3    2
     7     3     4    1
     8     4     5    1
     9     5     6    1
    10     5    26    2
    11     6     7    1
    12     6    30    1
    13     6    31    1
    14     7    25    1
    15     7     8    1
    16     8     9    1
    17     8    32    1
    18     8    33    1
    19     9    10    1
    20     9    23    1
    21     9    11    1
    22    11    12    1
    23    11    34    1
    24    11    35    1
    25    12    13    1
    26    12    36    1
    27    12    37    1
    28    13    14   am
    29    13    23    1
    30    14    15    2
    31    14    16    1
    32    16    21   ar
    33    16    17   ar
    34    17    18   ar
    35    17    38    1
    36    18    19   ar
    37    18    39    1
    38    19    20   ar
    39    20    21   ar
    40    20    40    1
    41    21    22    1
    42    23    24    1
    43    23    25    1
    44    25    41    1
    45    25    42    1
    46    26    43    1
@<TRIPOS>SUBSTRUCTURE
     1 ZINC001076281847        1 TEMP              0 ****  ****    0 ROOT


##########                                Name:    ZINC000569288350
##########                DOCK_Rotatable_Bonds:                   3
##########                         Heavy_Atoms:                  19
##########                    Molecular_Weight:             393.559
##########                DOCK_Rotatable_Bonds:                   3
##########                       Formal_Charge:           0.0299999
##########                     HBond_Acceptors:                   5
##########                        HBond_Donors:                   1
##########                         Heavy_Atoms:                  19
##########                          Grid_Score:          -22.421940
##########                     Grid_vdw_energy:          -21.257313
##########                      Grid_es_energy:           -1.164627
##########           Internal_energy_repulsive:            4.697681

@<TRIPOS>MOLECULE
ZINC000569288350
 26 27 1 0 0
SMALL
USER_CHARGES


@<TRIPOS>ATOM
      1 O1         -0.9520    2.0616   44.8134 O.2     1  ZINC000569288350   -0.4800
      2 C2         -0.2620    2.0990   45.8138 C.2     1  ZINC000569288350    0.5700
      3 N3          1.0595    2.3437   45.7122 N.am    1  ZINC000569288350   -0.6600
      4 C4          1.6382    2.5491   44.4551 C.ar    1  ZINC000569288350    0.1800
      5 C5          1.3065    3.6741   43.7120 C.ar    1  ZINC000569288350   -0.1200
      6 C6          1.8789    3.8754   42.4708 C.ar    1  ZINC000569288350   -0.0600
      7 C7          2.7816    2.9580   41.9664 C.ar    1  ZINC000569288350   -0.1500
      8 C8          3.1160    1.8340   42.7036 C.ar    1  ZINC000569288350    0.1300
      9 F9          3.9990    0.9395   42.2083 F       1  ZINC000569288350   -0.1200
     10 C10         2.5504    1.6304   43.9503 C.ar    1  ZINC000569288350   -0.1000
     11 Cl11        2.9691    0.2224   44.8755 Cl      1  ZINC000569288350   -0.0400
     12 C12        -0.8726    1.8823   47.1402 C.ar    1  ZINC000569288350   -0.1400
     13 C13        -1.1933    2.9742   47.9532 C.ar    1  ZINC000569288350    0.1400
     14 F14        -0.9457    4.2322   47.5272 F       1  ZINC000569288350   -0.1200
     15 C15        -1.7651    2.7620   49.1945 C.ar    1  ZINC000569288350   -0.1300
     16 C16        -2.0187    1.4752   49.6310 C.ar    1  ZINC000569288350   -0.0600
     17 C17        -1.7031    0.3904   48.8311 C.ar    1  ZINC000569288350   -0.0900
     18 C18        -1.1386    0.5855   47.5878 C.ar    1  ZINC000569288350   -0.0500
     19 I19        -0.6629   -1.0596   46.3809 I       1  ZINC000569288350    0.0000
     20 H20         1.6093    2.3775   46.5106 H       1  ZINC000569288350    0.4200
     21 H21         0.6008    4.3916   44.1041 H       1  ZINC000569288350    0.1600
     22 H22         1.6203    4.7507   41.8934 H       1  ZINC000569288350    0.1500
     23 H23         3.2268    3.1178   40.9955 H       1  ZINC000569288350    0.1500
     24 H24        -2.0137    3.6035   49.8242 H       1  ZINC000569288350    0.1500
     25 H25        -2.4650    1.3153   50.6013 H       1  ZINC000569288350    0.1500
     26 H26        -1.9042   -0.6119   49.1796 H       1  ZINC000569288350    0.1500
@<TRIPOS>BOND
     1     1     2    2
     2     2     3   am
     3     2    12    1
     4     3     4    1
     5     3    20    1
     6     4    10   ar
     7     4     5   ar
     8     5     6   ar
     9     5    21    1
    10     6     7   ar
    11     6    22    1
    12     7     8   ar
    13     7    23    1
    14     8     9    1
    15     8    10   ar
    16    10    11    1
    17    12    18   ar
    18    12    13   ar
    19    13    14    1
    20    13    15   ar
    21    15    16   ar
    22    15    24    1
    23    16    17   ar
    24    16    25    1
    25    17    18   ar
    26    17    26    1
    27    18    19    1
@<TRIPOS>SUBSTRUCTURE
     1 ZINC000569288350        1 TEMP              0 ****  ****    0 ROOT


##########                                Name:    ZINC000464706598
##########                DOCK_Rotatable_Bonds:                   4
##########                         Heavy_Atoms:                  26
##########                    Molecular_Weight:             412.286
##########                DOCK_Rotatable_Bonds:                   4
##########                       Formal_Charge:           0.0100001
##########                     HBond_Acceptors:                   5
##########                        HBond_Donors:                   0
##########                         Heavy_Atoms:                  26
##########                          Grid_Score:          -22.295658
##########                     Grid_vdw_energy:          -22.107332
##########                      Grid_es_energy:           -0.188326
##########           Internal_energy_repulsive:           58.703720

@<TRIPOS>MOLECULE
ZINC000464706598
 44 47 1 0 0
SMALL
USER_CHARGES


@<TRIPOS>ATOM
      1 O1        -12.8647   -1.8961   59.7397 O.2     1  ZINC000464706598   -0.5000
      2 C2        -11.6873   -1.5923   59.7230 C.2     1  ZINC000464706598    0.5900
      3 C3        -10.9532   -1.4166   60.9893 C.2     1  ZINC000464706598   -0.2800
      4 C4        -11.1393   -0.4053   61.9107 C.2     1  ZINC000464706598    0.1300
      5 N5        -10.2720   -0.6147   62.9176 N.pl3   1  ZINC000464706598   -0.3100
      6 C6        -10.1341    0.1857   64.0601 C.ar    1  ZINC000464706598    0.1700
      7 C7         -9.1390   -0.0919   64.9877 C.ar    1  ZINC000464706598   -0.1300
      8 C8         -9.0049    0.6985   66.1123 C.ar    1  ZINC000464706598   -0.0600
      9 C9         -9.8615    1.7660   66.3152 C.ar    1  ZINC000464706598   -0.1000
     10 Br10       -9.6756    2.8458   67.8564 Br      1  ZINC000464706598   -0.0400
     11 C11       -10.8537    2.0451   65.3920 C.ar    1  ZINC000464706598   -0.0700
     12 C12       -10.9887    1.2610   64.2632 C.ar    1  ZINC000464706598   -0.1100
     13 N13        -9.5313   -1.7671   62.6320 N.2     1  ZINC000464706598   -0.2800
     14 C14        -9.9318   -2.2551   61.4901 C.2     1  ZINC000464706598    0.0700
     15 N15       -11.0519   -1.4219   58.5466 N.am    1  ZINC000464706598   -0.6100
     16 C16        -9.6263   -1.0604   58.5011 C.3     1  ZINC000464706598    0.0400
     17 C17        -9.4631    0.1467   57.5703 C.3     1  ZINC000464706598    0.0500
     18 O18       -10.0860   -0.1385   56.3157 O.3     1  ZINC000464706598   -0.3700
     19 C19       -11.4961   -0.3591   56.3992 C.3     1  ZINC000464706598    0.0500
     20 C20       -11.7621   -1.5976   57.2698 C.3     1  ZINC000464706598    0.1600
     21 H21       -11.3974   -2.4896   56.7604 H       1  ZINC000464706598    0.0900
     22 C22       -13.2411   -1.7291   57.5270 C.ar    1  ZINC000464706598   -0.0500
     23 C23       -14.0089   -0.5993   57.7395 C.ar    1  ZINC000464706598   -0.1000
     24 C24       -15.3655   -0.7199   57.9755 C.ar    1  ZINC000464706598   -0.1100
     25 C25       -15.9546   -1.9703   57.9986 C.ar    1  ZINC000464706598   -0.1200
     26 C26       -15.1871   -3.0999   57.7851 C.ar    1  ZINC000464706598   -0.1100
     27 C27       -13.8312   -2.9791   57.5449 C.ar    1  ZINC000464706598   -0.1000
     28 H28       -11.8495    0.4049   61.8365 H       1  ZINC000464706598    0.1900
     29 H29        -8.4705   -0.9255   64.8303 H       1  ZINC000464706598    0.1400
     30 H30        -8.2311    0.4829   66.8343 H       1  ZINC000464706598    0.1500
     31 H31       -11.5208    2.8791   65.5525 H       1  ZINC000464706598    0.1500
     32 H32       -11.7630    1.4794   63.5427 H       1  ZINC000464706598    0.1500
     33 H33        -9.5456   -3.1413   61.0086 H       1  ZINC000464706598    0.2100
     34 H34        -9.2810   -0.8015   59.5020 H       1  ZINC000464706598    0.1200
     35 H35        -9.0467   -1.9003   58.1180 H       1  ZINC000464706598    0.0800
     36 H36        -9.9346    1.0201   58.0207 H       1  ZINC000464706598    0.0600
     37 H37        -8.4028    0.3449   57.4136 H       1  ZINC000464706598    0.1100
     38 H38       -11.9752    0.5125   56.8453 H       1  ZINC000464706598    0.0600
     39 H39       -11.8985   -0.5249   55.3998 H       1  ZINC000464706598    0.1100
     40 H40       -13.5486    0.3775   57.7215 H       1  ZINC000464706598    0.1100
     41 H41       -15.9652    0.1627   58.1422 H       1  ZINC000464706598    0.1200
     42 H42       -17.0145   -2.0645   58.1836 H       1  ZINC000464706598    0.1200
     43 H43       -15.6473   -4.0769   57.8035 H       1  ZINC000464706598    0.1200
     44 H44       -13.2315   -3.8617   57.3782 H       1  ZINC000464706598    0.1100
@<TRIPOS>BOND
     1     1     2    2
     2     2     3    1
     3     2    15   am
     4     3    14    1
     5     3     4    2
     6     4     5    1
     7     4    28    1
     8     5     6    1
     9     5    13    1
    10     6    12   ar
    11     6     7   ar
    12     7     8   ar
    13     7    29    1
    14     8     9   ar
    15     8    30    1
    16     9    10    1
    17     9    11   ar
    18    11    12   ar
    19    11    31    1
    20    12    32    1
    21    13    14    2
    22    14    33    1
    23    15    20    1
    24    15    16    1
    25    16    17    1
    26    16    34    1
    27    16    35    1
    28    17    18    1
    29    17    36    1
    30    17    37    1
    31    18    19    1
    32    19    20    1
    33    19    38    1
    34    19    39    1
    35    20    21    1
    36    20    22    1
    37    22    27   ar
    38    22    23   ar
    39    23    24   ar
    40    23    40    1
    41    24    25   ar
    42    24    41    1
    43    25    26   ar
    44    25    42    1
    45    26    27   ar
    46    26    43    1
    47    27    44    1
@<TRIPOS>SUBSTRUCTURE
     1 ZINC000464706598        1 TEMP              0 ****  ****    0 ROOT


##########                                Name:    ZINC000550782577
##########                DOCK_Rotatable_Bonds:                   5
##########                         Heavy_Atoms:                  25
##########                    Molecular_Weight:              338.45
##########                DOCK_Rotatable_Bonds:                   5
##########                       Formal_Charge:         -0.00999954
##########                     HBond_Acceptors:                   4
##########                        HBond_Donors:                   0
##########                         Heavy_Atoms:                  25
##########                          Grid_Score:          -21.432894
##########                     Grid_vdw_energy:          -20.719814
##########                      Grid_es_energy:           -0.713079
##########           Internal_energy_repulsive:           31.230354

@<TRIPOS>MOLECULE
ZINC000550782577
 51 53 1 0 0
SMALL
USER_CHARGES


@<TRIPOS>ATOM
      1 C1        -13.0866    0.7231   55.8335 C.3     1  ZINC000550782577    0.0700
      2 N2        -11.8183    0.1789   56.3250 N.am    1  ZINC000550782577   -0.5900
      3 C3        -10.7252    0.2006   55.5369 C.2     1  ZINC000550782577    0.5800
      4 O4         -9.6729   -0.2508   55.9446 O.2     1  ZINC000550782577   -0.5400
      5 C5        -10.8060    0.7741   54.1757 C.ar    1  ZINC000550782577    0.0300
      6 C6        -10.8988    2.1559   54.0136 C.ar    1  ZINC000550782577   -0.0600
      7 C7        -10.9739    2.6806   52.7356 C.ar    1  ZINC000550782577   -0.1200
      8 C8        -10.9537    1.8024   51.6560 C.ar    1  ZINC000550782577    0.1100
      9 O9        -11.0248    2.2744   50.3855 O.3     1  ZINC000550782577   -0.3000
     10 C10       -12.3232    2.6025   49.8870 C.3     1  ZINC000550782577    0.1000
     11 C11       -13.3808    1.8118   50.6595 C.3     1  ZINC000550782577   -0.2000
     12 C12       -12.5747    4.1011   50.0665 C.3     1  ZINC000550782577   -0.1400
     13 C13       -12.4041    2.2462   48.4013 C.3     1  ZINC000550782577   -0.2000
     14 C14       -10.8593    0.4334   51.8945 C.ar    1  ZINC000550782577   -0.0100
     15 N15       -10.7842   -0.0322   53.1204 N.ar    1  ZINC000550782577   -0.4100
     16 C16       -11.7382   -0.3891   57.6731 C.3     1  ZINC000550782577    0.1400
     17 H17       -12.7145   -0.3311   58.1542 H       1  ZINC000550782577    0.1100
     18 C18       -11.2891   -1.8526   57.5907 C.3     1  ZINC000550782577   -0.1300
     19 C19       -11.4451   -2.4831   58.9732 C.3     1  ZINC000550782577   -0.0800
     20 C20       -10.7765   -1.6326   60.0213 C.ar    1  ZINC000550782577   -0.0800
     21 C21       -10.4903   -2.2214   61.2459 C.ar    1  ZINC000550782577   -0.1200
     22 C22        -9.8838   -1.4939   62.2491 C.ar    1  ZINC000550782577   -0.1200
     23 C23        -9.5586   -0.1677   62.0346 C.ar    1  ZINC000550782577   -0.1200
     24 C24        -9.8400    0.4187   60.8177 C.ar    1  ZINC000550782577   -0.1200
     25 C25       -10.4471   -0.3129   59.8055 C.ar    1  ZINC000550782577   -0.0700
     26 C26       -10.7119    0.3855   58.4974 C.3     1  ZINC000550782577   -0.0900
     27 H27       -13.6002   -0.0326   55.2392 H       1  ZINC000550782577    0.0600
     28 H28       -13.7123    1.0070   56.6796 H       1  ZINC000550782577    0.0600
     29 H29       -12.8909    1.5997   55.2160 H       1  ZINC000550782577    0.1100
     30 H30       -10.9122    2.8080   54.8744 H       1  ZINC000550782577    0.1600
     31 H31       -11.0467    3.7468   52.5793 H       1  ZINC000550782577    0.1500
     32 H32       -13.6175    2.3320   51.5876 H       1  ZINC000550782577    0.0700
     33 H33       -14.2822    1.7222   50.0532 H       1  ZINC000550782577    0.0800
     34 H34       -12.9964    0.8177   50.8880 H       1  ZINC000550782577    0.0800
     35 H35       -11.8212    4.6644   49.5161 H       1  ZINC000550782577    0.0700
     36 H36       -13.5652    4.3513   49.6863 H       1  ZINC000550782577    0.0800
     37 H37       -12.5170    4.3549   51.1250 H       1  ZINC000550782577    0.0700
     38 H38       -12.2295    1.1779   48.2739 H       1  ZINC000550782577    0.0800
     39 H39       -13.3930    2.5008   48.0200 H       1  ZINC000550782577    0.0800
     40 H40       -11.6475    2.8060   47.8516 H       1  ZINC000550782577    0.0700
     41 H41       -10.8432   -0.2534   51.0612 H       1  ZINC000550782577    0.1900
     42 H42       -11.9097   -2.3871   56.8715 H       1  ZINC000550782577    0.0700
     43 H43       -10.2449   -1.8994   57.2816 H       1  ZINC000550782577    0.0700
     44 H44       -12.5053   -2.5760   59.2083 H       1  ZINC000550782577    0.0800
     45 H45       -10.9899   -3.4735   58.9699 H       1  ZINC000550782577    0.0800
     46 H46       -10.7449   -3.2574   61.4146 H       1  ZINC000550782577    0.1200
     47 H47        -9.6640   -1.9588   63.1988 H       1  ZINC000550782577    0.1200
     48 H48        -9.0863    0.4079   62.8170 H       1  ZINC000550782577    0.1200
     49 H49        -9.5859    1.4550   60.6511 H       1  ZINC000550782577    0.1200
     50 H50        -9.7814    0.4594   57.9345 H       1  ZINC000550782577    0.0800
     51 H51       -11.0919    1.3878   58.6955 H       1  ZINC000550782577    0.0800
@<TRIPOS>BOND
     1     1     2    1
     2     1    27    1
     3     1    28    1
     4     1    29    1
     5     2     3   am
     6     2    16    1
     7     3     4    2
     8     3     5    1
     9     5    15   ar
    10     5     6   ar
    11     6     7   ar
    12     6    30    1
    13     7     8   ar
    14     7    31    1
    15     8     9    1
    16     8    14   ar
    17     9    10    1
    18    10    11    1
    19    10    12    1
    20    10    13    1
    21    11    32    1
    22    11    33    1
    23    11    34    1
    24    12    35    1
    25    12    36    1
    26    12    37    1
    27    13    38    1
    28    13    39    1
    29    13    40    1
    30    14    15   ar
    31    14    41    1
    32    16    17    1
    33    16    26    1
    34    16    18    1
    35    18    19    1
    36    18    42    1
    37    18    43    1
    38    19    20    1
    39    19    44    1
    40    19    45    1
    41    20    25   ar
    42    20    21   ar
    43    21    22   ar
    44    21    46    1
    45    22    23   ar
    46    22    47    1
    47    23    24   ar
    48    23    48    1
    49    24    25   ar
    50    24    49    1
    51    25    26    1
    52    26    50    1
    53    26    51    1
@<TRIPOS>SUBSTRUCTURE
     1 ZINC000550782577        1 TEMP              0 ****  ****    0 ROOT


##########                                Name:    ZINC000431691749
##########                DOCK_Rotatable_Bonds:                   4
##########                         Heavy_Atoms:                  24
##########                    Molecular_Weight:             328.454
##########                DOCK_Rotatable_Bonds:                   4
##########                       Formal_Charge:         -0.00999957
##########                     HBond_Acceptors:                   4
##########                        HBond_Donors:                   0
##########                         Heavy_Atoms:                  24
##########                          Grid_Score:          -21.087183
##########                     Grid_vdw_energy:          -21.241154
##########                      Grid_es_energy:            0.153970
##########           Internal_energy_repulsive:          124.596672

@<TRIPOS>MOLECULE
ZINC000431691749
 52 54 1 0 0
SMALL
USER_CHARGES


@<TRIPOS>ATOM
      1 C1        -14.7429   -4.5740   57.1072 C.3     1  ZINC000431691749   -0.1200
      2 C2        -13.3315   -4.5442   57.6348 C.ar    1  ZINC000431691749   -0.0800
      3 C3        -12.5812   -5.7045   57.6672 C.ar    1  ZINC000431691749   -0.1200
      4 C4        -11.2865   -5.6773   58.1512 C.ar    1  ZINC000431691749   -0.1100
      5 C5        -10.7421   -4.4895   58.6021 C.ar    1  ZINC000431691749   -0.1100
      6 C6        -11.4923   -3.3287   58.5689 C.ar    1  ZINC000431691749   -0.0800
      7 C7        -10.8989   -2.0337   59.0610 C.3     1  ZINC000431691749    0.2000
      8 H8         -9.8980   -2.2178   59.4511 H       1  ZINC000431691749    0.1100
      9 N9        -10.8230   -1.0791   57.9524 N.am    1  ZINC000431691749   -0.5700
     10 C10       -11.2394   -1.3412   56.6977 C.2     1  ZINC000431691749    0.5200
     11 O11       -11.7288   -2.3723   56.2890 O.2     1  ZINC000431691749   -0.4400
     12 C12       -10.9693   -0.0783   55.9040 C.3     1  ZINC000431691749    0.0900
     13 H13       -10.2648   -0.2763   55.0963 H       1  ZINC000431691749    0.1300
     14 C14       -12.2736    0.4980   55.3493 C.3     1  ZINC000431691749   -0.1500
     15 N15       -10.3765    0.8345   56.8969 N.am    1  ZINC000431691749   -0.6000
     16 C16        -9.9239    2.2080   56.6627 C.3     1  ZINC000431691749    0.1500
     17 C17        -8.5180    2.4959   57.2152 C.3     1  ZINC000431691749   -0.1600
     18 C18        -7.9734    2.0280   55.8553 C.3     1  ZINC000431691749   -0.1400
     19 C19        -9.3329    2.4312   55.2606 C.3     1  ZINC000431691749   -0.1500
     20 C20       -10.3371    0.1627   58.0617 C.2     1  ZINC000431691749    0.7000
     21 O21        -9.9018    0.6292   59.0962 O.2     1  ZINC000431691749   -0.5300
     22 C22       -11.7808   -1.4577   60.1707 C.3     1  ZINC000431691749   -0.0700
     23 C23       -12.7288   -0.4130   59.5783 C.3     1  ZINC000431691749   -0.1400
     24 C24       -12.5971   -2.5832   60.8093 C.3     1  ZINC000431691749   -0.1400
     25 C25       -10.8984   -0.8010   61.2342 C.3     1  ZINC000431691749   -0.1600
     26 C26       -12.7852   -3.3552   58.0811 C.ar    1  ZINC000431691749   -0.1100
     27 H27       -14.7334   -4.3866   56.0335 H       1  ZINC000431691749    0.0700
     28 H28       -15.1828   -5.5522   57.3016 H       1  ZINC000431691749    0.0700
     29 H29       -15.3331   -3.8047   57.6052 H       1  ZINC000431691749    0.0700
     30 H30       -13.0066   -6.6326   57.3148 H       1  ZINC000431691749    0.1200
     31 H31       -10.7005   -6.5841   58.1772 H       1  ZINC000431691749    0.1200
     32 H32        -9.7309   -4.4683   58.9808 H       1  ZINC000431691749    0.1100
     33 H33       -12.9553    0.7121   56.1725 H       1  ZINC000431691749    0.0700
     34 H34       -12.0615    1.4181   54.8046 H       1  ZINC000431691749    0.0800
     35 H35       -12.7330   -0.2253   54.6757 H       1  ZINC000431691749    0.0800
     36 H36       -10.6673    2.9529   56.9469 H       1  ZINC000431691749    0.1000
     37 H37        -8.3365    3.5513   57.4185 H       1  ZINC000431691749    0.0900
     38 H38        -8.2342    1.8490   58.0452 H       1  ZINC000431691749    0.0700
     39 H39        -7.1410    2.6283   55.4884 H       1  ZINC000431691749    0.0700
     40 H40        -7.7768    0.9568   55.8089 H       1  ZINC000431691749    0.0800
     41 H41        -9.7071    1.7321   54.5127 H       1  ZINC000431691749    0.1000
     42 H42        -9.3743    3.4689   54.9295 H       1  ZINC000431691749    0.0900
     43 H43       -13.3573   -0.8809   58.8206 H       1  ZINC000431691749    0.0600
     44 H44       -13.3570   -0.0028   60.3688 H       1  ZINC000431691749    0.0600
     45 H45       -12.1472    0.3888   59.1233 H       1  ZINC000431691749    0.0600
     46 H46       -11.9218   -3.3275   61.2313 H       1  ZINC000431691749    0.0500
     47 H47       -13.2254   -2.1729   61.5998 H       1  ZINC000431691749    0.0600
     48 H48       -13.2257   -3.0511   60.0516 H       1  ZINC000431691749    0.0500
     49 H49        -9.9512   -0.5014   60.7860 H       1  ZINC000431691749    0.0700
     50 H50       -11.4048    0.0773   61.6346 H       1  ZINC000431691749    0.0400
     51 H51       -10.7109   -1.5110   62.0397 H       1  ZINC000431691749    0.1000
     52 H52       -13.3712   -2.4483   58.0550 H       1  ZINC000431691749    0.1300
@<TRIPOS>BOND
     1     1     2    1
     2     1    27    1
     3     1    28    1
     4     1    29    1
     5     2    26   ar
     6     2     3   ar
     7     3     4   ar
     8     3    30    1
     9     4     5   ar
    10     4    31    1
    11     5     6   ar
    12     5    32    1
    13     6     7    1
    14     6    26   ar
    15     7     8    1
    16     7     9    1
    17     7    22    1
    18     9    20   am
    19     9    10   am
    20    10    11    2
    21    10    12    1
    22    12    13    1
    23    12    14    1
    24    12    15    1
    25    14    33    1
    26    14    34    1
    27    14    35    1
    28    15    16    1
    29    15    20   am
    30    16    19    1
    31    16    17    1
    32    16    36    1
    33    17    18    1
    34    17    37    1
    35    17    38    1
    36    18    19    1
    37    18    39    1
    38    18    40    1
    39    19    41    1
    40    19    42    1
    41    20    21    2
    42    22    23    1
    43    22    24    1
    44    22    25    1
    45    23    43    1
    46    23    44    1
    47    23    45    1
    48    24    46    1
    49    24    47    1
    50    24    48    1
    51    25    49    1
    52    25    50    1
    53    25    51    1
    54    26    52    1
@<TRIPOS>SUBSTRUCTURE
     1 ZINC000431691749        1 TEMP              0 ****  ****    0 ROOT


##########                                Name:    ZINC000450219577
##########                DOCK_Rotatable_Bonds:                   8
##########                         Heavy_Atoms:                  26
##########                    Molecular_Weight:             353.421
##########                DOCK_Rotatable_Bonds:                   8
##########                       Formal_Charge:          -0.0199997
##########                     HBond_Acceptors:                   6
##########                        HBond_Donors:                   1
##########                         Heavy_Atoms:                  26
##########                          Grid_Score:          -20.915014
##########                     Grid_vdw_energy:          -20.466385
##########                      Grid_es_energy:           -0.448629
##########           Internal_energy_repulsive:           36.917591

@<TRIPOS>MOLECULE
ZINC000450219577
 49 51 1 0 0
SMALL
USER_CHARGES


@<TRIPOS>ATOM
      1 C1        -18.2799   -0.4272   59.4609 C.3     1  ZINC000450219577   -0.1800
      2 C2        -18.2547   -1.8739   58.9634 C.3     1  ZINC000450219577    0.1200
      3 C3        -17.9495   -2.8105   60.1340 C.3     1  ZINC000450219577   -0.1800
      4 C4        -19.6171   -2.2314   58.3660 C.3     1  ZINC000450219577   -0.1400
      5 O5        -17.2277   -2.0184   57.9474 O.3     1  ZINC000450219577   -0.3400
      6 C6        -15.9662   -1.7405   58.3121 C.2     1  ZINC000450219577    0.4700
      7 O7        -15.7280   -1.3885   59.4432 O.2     1  ZINC000450219577   -0.5000
      8 C8        -14.8470   -1.8674   57.3110 C.3     1  ZINC000450219577    0.2000
      9 H9        -13.9248   -2.1317   57.8285 H       1  ZINC000450219577    0.1400
     10 N10       -15.1777   -2.9121   56.3386 N.am    1  ZINC000450219577   -0.7100
     11 C11       -14.8127   -4.1886   56.5704 C.2     1  ZINC000450219577    0.5800
     12 O12       -14.2077   -4.4729   57.5857 O.2     1  ZINC000450219577   -0.5200
     13 C13       -15.1480   -5.2430   55.5901 C.ar    1  ZINC000450219577   -0.2500
     14 C14       -15.8392   -4.9369   54.4124 C.ar    1  ZINC000450219577    0.1900
     15 N15       -16.1179   -5.9105   53.5635 N.ar    1  ZINC000450219577   -0.5100
     16 C16       -15.7548   -7.1533   53.8133 C.ar    1  ZINC000450219577    0.3800
     17 C17       -16.0962   -8.2281   52.8137 C.3     1  ZINC000450219577   -0.1100
     18 C18       -17.4589   -8.1434   52.1230 C.3     1  ZINC000450219577   -0.1500
     19 C19       -16.1837   -7.8214   51.3412 C.3     1  ZINC000450219577   -0.1500
     20 N20       -15.1021   -7.4856   54.9099 N.ar    1  ZINC000450219577   -0.5200
     21 C21       -14.7781   -6.5746   55.8107 C.ar    1  ZINC000450219577    0.2200
     22 C22       -14.6625   -0.5545   56.5945 C.ar    1  ZINC000450219577   -0.1100
     23 C23       -15.3678   -0.2952   55.4343 C.ar    1  ZINC000450219577   -0.1000
     24 C24       -15.1987    0.9091   54.7772 C.ar    1  ZINC000450219577   -0.1200
     25 C25       -14.3244    1.8542   55.2805 C.ar    1  ZINC000450219577   -0.1100
     26 C26       -13.6197    1.5953   56.4411 C.ar    1  ZINC000450219577   -0.1200
     27 C27       -13.7921    0.3927   57.1007 C.ar    1  ZINC000450219577   -0.0800
     28 H28       -17.3094   -0.1724   59.8866 H       1  ZINC000450219577    0.0800
     29 H29       -18.4974    0.2400   58.6269 H       1  ZINC000450219577    0.0600
     30 H30       -19.0510   -0.3187   60.2237 H       1  ZINC000450219577    0.0700
     31 H31       -18.7205   -2.7020   60.8968 H       1  ZINC000450219577    0.0700
     32 H32       -17.9317   -3.8412   59.7797 H       1  ZINC000450219577    0.0600
     33 H33       -16.9789   -2.5557   60.5597 H       1  ZINC000450219577    0.0800
     34 H34       -19.8346   -1.5642   57.5320 H       1  ZINC000450219577    0.0700
     35 H35       -19.5992   -3.2621   58.0116 H       1  ZINC000450219577    0.0700
     36 H36       -20.3882   -2.1229   59.1288 H       1  ZINC000450219577    0.0800
     37 H37       -15.6595   -2.6851   55.5279 H       1  ZINC000450219577    0.4100
     38 H38       -16.1403   -3.9215   54.2009 H       1  ZINC000450219577    0.1700
     39 H39       -15.7068   -9.2208   53.0392 H       1  ZINC000450219577    0.1300
     40 H40       -17.9662   -9.0807   51.8942 H       1  ZINC000450219577    0.1000
     41 H41       -18.1084   -7.3104   52.3917 H       1  ZINC000450219577    0.1100
     42 H42       -15.9943   -6.7764   51.0957 H       1  ZINC000450219577    0.1000
     43 H43       -15.8521   -8.5466   50.5982 H       1  ZINC000450219577    0.1100
     44 H44       -14.2435   -6.8544   56.7064 H       1  ZINC000450219577    0.1800
     45 H45       -16.0510   -1.0336   55.0412 H       1  ZINC000450219577    0.1200
     46 H46       -15.7492    1.1114   53.8704 H       1  ZINC000450219577    0.1200
     47 H47       -14.1917    2.7949   54.7666 H       1  ZINC000450219577    0.1300
     48 H48       -12.9364    2.3336   56.8341 H       1  ZINC000450219577    0.1300
     49 H49       -13.2415    0.1903   58.0074 H       1  ZINC000450219577    0.1300
@<TRIPOS>BOND
     1     1     2    1
     2     1    28    1
     3     1    29    1
     4     1    30    1
     5     2     3    1
     6     2     4    1
     7     2     5    1
     8     3    31    1
     9     3    32    1
    10     3    33    1
    11     4    34    1
    12     4    35    1
    13     4    36    1
    14     5     6    1
    15     6     7    2
    16     6     8    1
    17     8     9    1
    18     8    10    1
    19     8    22    1
    20    10    11   am
    21    10    37    1
    22    11    12    2
    23    11    13    1
    24    13    21   ar
    25    13    14   ar
    26    14    15   ar
    27    14    38    1
    28    15    16   ar
    29    16    17    1
    30    16    20   ar
    31    17    19    1
    32    17    18    1
    33    17    39    1
    34    18    19    1
    35    18    40    1
    36    18    41    1
    37    19    42    1
    38    19    43    1
    39    20    21   ar
    40    21    44    1
    41    22    27   ar
    42    22    23   ar
    43    23    24   ar
    44    23    45    1
    45    24    25   ar
    46    24    46    1
    47    25    26   ar
    48    25    47    1
    49    26    27   ar
    50    26    48    1
    51    27    49    1
@<TRIPOS>SUBSTRUCTURE
     1 ZINC000450219577        1 TEMP              0 ****  ****    0 ROOT


##########                                Name:    ZINC000482962466
##########                DOCK_Rotatable_Bonds:                   2
##########                         Heavy_Atoms:                  25
##########                    Molecular_Weight:             404.303
##########                DOCK_Rotatable_Bonds:                   2
##########                       Formal_Charge:           0.0200002
##########                     HBond_Acceptors:                   4
##########                        HBond_Donors:                   0
##########                         Heavy_Atoms:                  25
##########                          Grid_Score:          -20.554169
##########                     Grid_vdw_energy:          -19.372026
##########                      Grid_es_energy:           -1.182142
##########           Internal_energy_repulsive:            6.527852

@<TRIPOS>MOLECULE
ZINC000482962466
 47 50 1 0 0
SMALL
USER_CHARGES


@<TRIPOS>ATOM
      1 C1        -12.7240    2.6467   54.6016 C.3     1  ZINC000482962466   -0.1400
      2 C2        -12.0462    2.2650   55.9191 C.3     1  ZINC000482962466    0.0700
      3 H3        -11.8163    1.1996   55.9149 H       1  ZINC000482962466    0.0700
      4 C4        -12.9851    2.5818   57.0887 C.3     1  ZINC000482962466    0.0800
      5 N5        -12.2459    2.3833   58.3454 N.am    1  ZINC000482962466   -0.6100
      6 C6        -12.7570    1.6306   59.3397 C.2     1  ZINC000482962466    0.5600
      7 O7        -13.8444    1.1038   59.2058 O.2     1  ZINC000482962466   -0.5200
      8 C8        -11.9959    1.4459   60.5926 C.ar    1  ZINC000482962466   -0.1100
      9 C9        -11.8779    2.5128   61.5011 C.ar    1  ZINC000482962466   -0.0700
     10 C10       -11.1840    2.3678   62.6586 C.ar    1  ZINC000482962466   -0.1000
     11 C11       -10.5714    1.1383   62.9628 C.ar    1  ZINC000482962466   -0.0400
     12 C12        -9.8484    0.9645   64.1543 C.ar    1  ZINC000482962466   -0.0700
     13 C13        -9.2663   -0.2378   64.4217 C.ar    1  ZINC000482962466   -0.0800
     14 Br14       -8.2948   -0.4655   66.0280 Br      1  ZINC000482962466   -0.0400
     15 C15        -9.3765   -1.3035   63.5288 C.ar    1  ZINC000482962466   -0.1000
     16 C16       -10.0685   -1.1722   62.3647 C.ar    1  ZINC000482962466   -0.0900
     17 C17       -10.6835    0.0545   62.0547 C.ar    1  ZINC000482962466   -0.0500
     18 C18       -11.4088    0.2213   60.8661 C.ar    1  ZINC000482962466   -0.0700
     19 C19       -10.9319    3.0315   58.4844 C.3     1  ZINC000482962466    0.0700
     20 C20       -10.0943    2.6954   57.2466 C.3     1  ZINC000482962466    0.0800
     21 C21        -8.7983    3.5096   57.2708 C.3     1  ZINC000482962466   -0.1100
     22 C22        -7.9332    3.1072   56.0722 C.3     1  ZINC000482962466   -0.1500
     23 C23        -7.6758    1.5989   56.1224 C.3     1  ZINC000482962466    0.0600
     24 O24        -8.9238    0.9030   56.1269 O.3     1  ZINC000482962466   -0.3700
     25 C25        -9.7551    1.2034   57.2500 C.3     1  ZINC000482962466    0.0400
     26 O26       -10.8373    3.0138   56.0686 O.3     1  ZINC000482962466   -0.3500
     27 H27       -12.0551    2.4229   53.7706 H       1  ZINC000482962466    0.0700
     28 H28       -13.6465    2.0769   54.4891 H       1  ZINC000482962466    0.0800
     29 H29       -12.9536    3.7122   54.6064 H       1  ZINC000482962466    0.0700
     30 H30       -13.3208    3.6166   57.0199 H       1  ZINC000482962466    0.0800
     31 H31       -13.8459    1.9136   57.0597 H       1  ZINC000482962466    0.1000
     32 H32       -12.3450    3.4599   61.2747 H       1  ZINC000482962466    0.1400
     33 H33       -11.1018    3.1966   63.3463 H       1  ZINC000482962466    0.1400
     34 H34        -9.7539    1.7806   64.8554 H       1  ZINC000482962466    0.1400
     35 H35        -8.9056   -2.2464   63.7647 H       1  ZINC000482962466    0.1400
     36 H36       -10.1452   -2.0055   61.6822 H       1  ZINC000482962466    0.1400
     37 H37       -11.5053   -0.5969   60.1677 H       1  ZINC000482962466    0.1400
     38 H38       -11.0611    4.1114   58.5582 H       1  ZINC000482962466    0.0900
     39 H39       -10.4316    2.6592   59.3785 H       1  ZINC000482962466    0.1000
     40 H40        -9.0340    4.5721   57.2100 H       1  ZINC000482962466    0.0800
     41 H41        -8.2576    3.3070   58.1952 H       1  ZINC000482962466    0.0800
     42 H42        -8.4530    3.3575   55.1474 H       1  ZINC000482962466    0.0800
     43 H43        -6.9833    3.6403   56.1131 H       1  ZINC000482962466    0.0800
     44 H44        -7.0961    1.2999   55.2492 H       1  ZINC000482962466    0.1000
     45 H45        -7.1206    1.3550   57.0281 H       1  ZINC000482962466    0.0500
     46 H46        -9.2275    0.9527   58.1702 H       1  ZINC000482962466    0.0600
     47 H47       -10.6746    0.6214   57.1877 H       1  ZINC000482962466    0.1000
@<TRIPOS>BOND
     1     1     2    1
     2     1    27    1
     3     1    28    1
     4     1    29    1
     5     2     3    1
     6     2    26    1
     7     2     4    1
     8     4     5    1
     9     4    30    1
    10     4    31    1
    11     5     6   am
    12     5    19    1
    13     6     7    2
    14     6     8    1
    15     8    18   ar
    16     8     9   ar
    17     9    10   ar
    18     9    32    1
    19    10    11   ar
    20    10    33    1
    21    11    17   ar
    22    11    12   ar
    23    12    13   ar
    24    12    34    1
    25    13    14    1
    26    13    15   ar
    27    15    16   ar
    28    15    35    1
    29    16    17   ar
    30    16    36    1
    31    17    18   ar
    32    18    37    1
    33    19    20    1
    34    19    38    1
    35    19    39    1
    36    20    25    1
    37    20    21    1
    38    20    26    1
    39    21    22    1
    40    21    40    1
    41    21    41    1
    42    22    23    1
    43    22    42    1
    44    22    43    1
    45    23    24    1
    46    23    44    1
    47    23    45    1
    48    24    25    1
    49    25    46    1
    50    25    47    1
@<TRIPOS>SUBSTRUCTURE
     1 ZINC000482962466        1 TEMP              0 ****  ****    0 ROOT

